0:0:0
     RDKit          3D

 64 69  0  0  1  0  0  0  0  0999 V2000
    0.7640   -8.7800    2.0753 C   0  0  0  0  0  0  0  0  0  0  0  0
    0.8933   -7.2844    1.7949 C   0  0  0  0  0  0  0  0  0  0  0  0
   -0.0886   -6.5787    1.5542 O   0  0  0  0  0  0  0  0  0  0  0  0
    2.1681   -6.8608    1.8674 O   0  0  0  0  0  0  0  0  0  0  0  0
    2.4942   -5.4680    1.9541 C   0  0  2  0  0  0  0  0  0  0  0  0
    2.7068   -4.7204    0.4838 C   0  0  1  0  0  0  0  0  0  0  0  0
    2.5711   -3.1322    0.3213 C   0  0  1  0  0  0  0  0  0  0  0  0
    3.6174   -3.1401    1.3462 C   0  0  1  0  0  0  0  0  0  0  0  0
    4.1775   -4.4806    0.4463 C   0  0  2  0  0  0  0  0  0  0  0  0
    5.2707   -4.1484   -0.5354 C   0  0  0  0  0  0  0  0  0  0  0  0
    6.0990   -3.3400    0.5030 C   0  0  2  0  0  0  0  0  0  0  0  0
    7.5882   -3.3279    0.0794 C   0  0  0  0  0  0  0  0  0  0  0  0
    7.8282   -2.7754   -1.2138 O   0  0  0  0  0  0  0  0  0  0  0  0
    6.0788   -4.0963    1.8777 O   0  0  0  0  0  0  0  0  0  0  0  0
    5.1556   -5.2716    2.1832 C   0  0  2  0  0  0  0  0  0  0  0  0
    4.9139   -5.7690    0.9090 C   0  0  0  0  0  0  0  0  0  0  0  0
    3.7847   -5.2809    2.9546 C   0  0  2  0  0  0  0  0  0  0  0  0
    5.0090   -6.0985    3.4247 C   0  0  0  0  0  0  0  0  0  0  0  0
    4.9874   -7.6187    3.4175 C   0  0  0  0  0  0  0  0  0  0  0  0
    5.7592   -5.6337    4.6587 C   0  0  0  0  0  0  0  0  0  0  0  0
    5.3467   -1.8836    0.4920 C   0  0  1  0  0  0  0  0  0  0  0  0
    6.3449   -0.7067    0.6148 C   0  0  0  0  0  0  0  0  0  0  0  0
    4.4036   -1.5826   -0.7683 C   0  0  0  0  0  0  0  0  0  0  0  0
    3.0136   -2.3134   -0.8565 N   0  0  1  0  0  0  0  0  0  0  0  0
    2.6240   -2.7733   -2.2121 C   0  0  0  0  0  0  0  0  0  0  0  0
    4.3913   -1.8614    1.6609 C   0  0  0  0  0  0  0  0  0  0  0  0
    3.4349   -0.6257    1.7470 C   0  0  0  0  0  0  0  0  0  0  0  0
    5.0961   -1.8362    3.0455 C   0  0  0  0  0  0  0  0  0  0  0  0
    1.1675   -9.0276    3.0608 H   0  0  0  0  0  0  0  0  0  0  0  0
    1.3197   -9.3631    1.3438 H   0  0  0  0  0  0  0  0  0  0  0  0
   -0.2804   -9.0944    2.0638 H   0  0  0  0  0  0  0  0  0  0  0  0
    1.6673   -4.9745    2.4731 H   0  0  0  0  0  0  0  0  0  0  0  0
    2.3562   -5.2542   -0.3732 H   0  0  0  0  0  0  0  0  0  0  0  0
    1.6620   -2.6961    0.7199 H   0  0  0  0  0  0  0  0  0  0  0  0
    2.9481   -3.2072    2.2056 H   0  0  0  0  0  0  0  0  0  0  0  0
    5.8193   -4.9726   -0.9929 H   0  0  0  0  0  0  0  0  0  0  0  0
    4.9953   -3.7263   -1.4830 H   0  0  0  0  0  0  0  0  0  0  0  0
    8.1838   -2.8206    0.8374 H   0  0  0  0  0  0  0  0  0  0  0  0
    7.9642   -4.3510    0.0660 H   0  0  0  0  0  0  0  0  0  0  0  0
    8.7646   -2.7618   -1.3772 H   0  0  0  0  0  0  0  0  0  0  0  0
    4.3198   -6.6616    0.8586 H   0  0  0  0  0  0  0  0  0  0  0  0
    5.9033   -6.0836    0.5535 H   0  0  0  0  0  0  0  0  0  0  0  0
    3.5611   -4.5467    3.7060 H   0  0  0  0  0  0  0  0  0  0  0  0
    4.5419   -8.0022    4.3383 H   0  0  0  0  0  0  0  0  0  0  0  0
    6.0033   -8.0054    3.3291 H   0  0  0  0  0  0  0  0  0  0  0  0
    4.4000   -7.9908    2.5855 H   0  0  0  0  0  0  0  0  0  0  0  0
    5.2843   -5.9967    5.5696 H   0  0  0  0  0  0  0  0  0  0  0  0
    5.7810   -4.5478    4.6877 H   0  0  0  0  0  0  0  0  0  0  0  0
    6.7858   -5.9932    4.6312 H   0  0  0  0  0  0  0  0  0  0  0  0
    5.8589    0.2642    0.7101 H   0  0  0  0  0  0  0  0  0  0  0  0
    6.9462   -0.6356   -0.2836 H   0  0  0  0  0  0  0  0  0  0  0  0
    7.0340   -0.8246    1.4504 H   0  0  0  0  0  0  0  0  0  0  0  0
    4.1634   -0.5304   -0.7744 H   0  0  0  0  0  0  0  0  0  0  0  0
    4.9596   -1.6813   -1.6799 H   0  0  0  0  0  0  0  0  0  0  0  0
    3.0809   -3.7056   -2.5249 H   0  0  0  0  0  0  0  0  0  0  0  0
    2.8646   -2.0089   -2.9425 H   0  0  0  0  0  0  0  0  0  0  0  0
    1.5426   -2.8992   -2.2446 H   0  0  0  0  0  0  0  0  0  0  0  0
    3.9886    0.3116    1.7984 H   0  0  0  0  0  0  0  0  0  0  0  0
    2.8338   -0.6748    2.6563 H   0  0  0  0  0  0  0  0  0  0  0  0
    2.7229   -0.5106    0.9324 H   0  0  0  0  0  0  0  0  0  0  0  0
    5.1323   -0.8224    3.4492 H   0  0  0  0  0  0  0  0  0  0  0  0
    6.1380   -2.1335    3.0069 H   0  0  0  0  0  0  0  0  0  0  0  0
    4.5883   -2.4564    3.7829 H   0  0  0  0  0  0  0  0  0  0  0  0
    2.3809   -1.5570   -0.7555 H   0  0  0  0  0  0  0  0  0  0  0  0
  1  2  1  0
  1 29  1  0
  1 30  1  0
  1 31  1  0
  2  3  2  0
  2  4  1  0
  4  5  1  0
  5 17  1  0
  5  6  1  0
  5 32  1  1
  6  9  1  0
  6  7  1  0
  6 33  1  6
  7 24  1  0
  7  8  1  0
  7 34  1  1
  8 26  1  0
  8  9  1  0
  8 35  1  1
  9 16  1  1
  9 10  1  0
 10 11  1  0
 10 36  1  0
 10 37  1  0
 11 12  1  6
 11 14  1  0
 11 21  1  0
 12 13  1  0
 12 38  1  0
 12 39  1  0
 13 40  1  0
 15 14  1  6
 15 18  1  0
 15 16  1  0
 15 17  1  0
 16 41  1  0
 16 42  1  0
 17 18  1  0
 17 43  1  1
 18 19  1  0
 18 20  1  0
 19 44  1  0
 19 45  1  0
 19 46  1  0
 20 47  1  0
 20 48  1  0
 20 49  1  0
 21 22  1  1
 21 23  1  0
 21 26  1  0
 22 50  1  0
 22 51  1  0
 22 52  1  0
 23 24  1  0
 23 53  1  0
 23 54  1  0
 24 25  1  0
 24 64  1  1
 25 55  1  0
 25 56  1  0
 25 57  1  0
 26 27  1  0
 26 28  1  0
 27 58  1  0
 27 59  1  0
 27 60  1  0
 28 61  1  0
 28 62  1  0
 28 63  1  0
M  CHG  1  24   1
M  END
>  <i_m_ct_stereo_status>  (1) 
1

>  <s_m_source_file>  (1) 
/var/tmp/pbs.5083858.sched01/tmpenikwtu0/0t3uzvhev.sdf

>  <i_m_source_file_index>  (1) 
1

>  <i_lp_mmshare_version>  (1) 
48012

>  <i_f3d_flags>  (1) 
0

>  <s_epik_input>  (1) 
W0NIM11DKD1PKU9bQ0BIXTFbQ0BASF0oQzIoW0NIM10pW0NIM10pW0NAQF0yKFtDSDJdMylPW0NAXShbQ0gyXTQpKFtDSDJdW09IXSlbQ0BAXShbQ0gzXSkoW0NIMl1ONVtDSDNdKUMoW0NIM10pKFtDSDNdKVtDQEhdNltDQEBIXTVbQ0BIXTFbQ0BAXTM0Ng==

>  <s_epik_cmdline>  (1) 
J2VwaWtfcHl0aG9uJywgJy1waHQnLCAnMi4wJywgJy1waCcsICc3LjAnLCAnLXRuJywgJzgnLCAnLW1hJywgJzIwMCcsICctaW1hZScsICc8aW5maWxlLm1hZT4nLCAnLW9tYWUnLCAnPG91dGZpbGUubWFlPic=

>  <r_epik_Ionization_Penalty>  (1) 
0.00360568

>  <r_epik_Ionization_Penalty_Charging>  (1) 
0.00360562

>  <r_epik_Ionization_Penalty_Neutral>  (1) 
5.07362e-08

>  <r_epik_State_Penalty>  (1) 
0.00256343

>  <r_epik_Charging_Adjusted_Penalty>  (1) 
0.00616906

>  <i_epik_Tot_Q>  (1) 
1

>  <i_epik_Tot_abs_Q>  (1) 
1

>  <s_epik_Chemistry_Notes>  (1) 
This compound has an ester and may undergo hydrolysis at high or low pH.

>  <s_lp_Force_Field>  (1) 
OPLS3e

>  <r_lp_Energy>  (1) 
302.438

>  <b_lp_Chiralities_Consistent>  (1) 
1

>  <s_lp_Variant>  (1) 
0:0-1

>  <s_i_glide_gridfile>  (1) 
pfpi4k_grid

>  <i_i_glide_lignum>  (1) 
1

>  <i_i_glide_rotatable_bonds>  (1) 
4

>  <r_i_docking_score>  (1) 
-4.63367

>  <r_i_glide_ligand_efficiency>  (1) 
-0.165488

>  <r_i_glide_ligand_efficiency_sa>  (1) 
-0.50252

>  <r_i_glide_ligand_efficiency_ln>  (1) 
-1.06959

>  <r_i_glide_gscore>  (1) 
-4.63367

>  <r_i_glide_lipo>  (1) 
-0.648926

>  <r_i_glide_hbond>  (1) 
-0.540311

>  <r_i_glide_metal>  (1) 
-0

>  <r_i_glide_rewards>  (1) 
-0.746344

>  <r_i_glide_evdw>  (1) 
-21.8246

>  <r_i_glide_ecoul>  (1) 
-10.9948

>  <r_i_glide_erotb>  (1) 
0.179045

>  <r_i_glide_esite>  (1) 
-0.136685

>  <r_i_glide_emodel>  (1) 
-43.2231

>  <r_i_glide_energy>  (1) 
-32.8194

>  <r_i_glide_einternal>  (1) 
1.35054

>  <r_i_glide_intrahb_reward>  (1) 
-0

>  <i_i_glide_confnum>  (1) 
1

>  <i_i_glide_posenum>  (1) 
10

>  <r_i_glide_eff_state_penalty>  (1) 
0

>  <ligand_id>  (1) 
0

>  <original_smiles>  (1) 
CC(=O)OC1C2C3C4C25CC(CO)(OC2(C5)C1C2(C)C)C(C)(CN3C)C4(C)C

>  <smiles>  (1) 
[H]OC([H])([H])C12OC34C([H])([H])C5(C1([H])[H])C([H])(C([H])(OC(=O)C([H])([H])[H])C3([H])C4(C([H])([H])[H])C([H])([H])[H])C1([H])C5([H])C(C([H])([H])[H])(C([H])([H])[H])C2(C([H])([H])[H])C([H])([H])[N+]1([H])C([H])([H])[H]

$$$$
0:0:1
     RDKit          3D

 64 69  0  0  1  0  0  0  0  0999 V2000
    0.7163   -8.7039    2.0772 C   0  0  0  0  0  0  0  0  0  0  0  0
    0.8813   -7.2157    1.7848 C   0  0  0  0  0  0  0  0  0  0  0  0
   -0.0715   -6.5094    1.4353 O   0  0  0  0  0  0  0  0  0  0  0  0
    2.1410   -6.7917    1.9684 O   0  0  0  0  0  0  0  0  0  0  0  0
    2.4642   -5.3982    2.0253 C   0  0  2  0  0  0  0  0  0  0  0  0
    2.6925   -4.6847    0.5400 C   0  0  1  0  0  0  0  0  0  0  0  0
    2.5587   -3.1005    0.3408 C   0  0  1  0  0  0  0  0  0  0  0  0
    3.5952   -3.0843    1.3749 C   0  0  1  0  0  0  0  0  0  0  0  0
    4.1614   -4.4465    0.5145 C   0  0  2  0  0  0  0  0  0  0  0  0
    5.2633   -4.1439   -0.4641 C   0  0  0  0  0  0  0  0  0  0  0  0
    6.0788   -3.3094    0.5639 C   0  0  2  0  0  0  0  0  0  0  0  0
    7.5698   -3.2992    0.1543 C   0  0  0  0  0  0  0  0  0  0  0  0
    7.7912   -2.7923   -1.1553 O   0  0  0  0  0  0  0  0  0  0  0  0
    6.0464   -4.0304    1.9559 O   0  0  0  0  0  0  0  0  0  0  0  0
    5.1219   -5.1981    2.2782 C   0  0  2  0  0  0  0  0  0  0  0  0
    4.8930   -5.7255    1.0144 C   0  0  0  0  0  0  0  0  0  0  0  0
    3.7446   -5.1878    3.0359 C   0  0  2  0  0  0  0  0  0  0  0  0
    4.9646   -5.9932    3.5377 C   0  0  0  0  0  0  0  0  0  0  0  0
    4.9441   -7.5135    3.5661 C   0  0  0  0  0  0  0  0  0  0  0  0
    5.7073   -5.4986    4.7671 C   0  0  0  0  0  0  0  0  0  0  0  0
    5.3323   -1.8533    0.5077 C   0  0  1  0  0  0  0  0  0  0  0  0
    6.3384   -0.6805    0.6014 C   0  0  0  0  0  0  0  0  0  0  0  0
    4.4022   -1.5782   -0.7682 C   0  0  0  0  0  0  0  0  0  0  0  0
    3.0158   -2.3098   -0.8505 N   0  0  1  0  0  0  0  0  0  0  0  0
    2.6356   -2.8000   -2.1985 C   0  0  0  0  0  0  0  0  0  0  0  0
    4.3687   -1.7980    1.6668 C   0  0  0  0  0  0  0  0  0  0  0  0
    3.4145   -0.5590    1.7141 C   0  0  0  0  0  0  0  0  0  0  0  0
    5.0626   -1.7397    3.0564 C   0  0  0  0  0  0  0  0  0  0  0  0
    1.0258   -8.9407    3.0988 H   0  0  0  0  0  0  0  0  0  0  0  0
    1.3316   -9.3002    1.4046 H   0  0  0  0  0  0  0  0  0  0  0  0
   -0.3227   -9.0163    1.9704 H   0  0  0  0  0  0  0  0  0  0  0  0
    1.6291   -4.9003    2.5237 H   0  0  0  0  0  0  0  0  0  0  0  0
    2.3593   -5.2368   -0.3114 H   0  0  0  0  0  0  0  0  0  0  0  0
    1.6436   -2.6571    0.7166 H   0  0  0  0  0  0  0  0  0  0  0  0
    2.9202   -3.1325    2.2299 H   0  0  0  0  0  0  0  0  0  0  0  0
    5.8148   -4.9798   -0.8946 H   0  0  0  0  0  0  0  0  0  0  0  0
    4.9954   -3.7415   -1.4222 H   0  0  0  0  0  0  0  0  0  0  0  0
    8.1554   -2.7213    0.8641 H   0  0  0  0  0  0  0  0  0  0  0  0
    7.9785   -4.3086    0.2127 H   0  0  0  0  0  0  0  0  0  0  0  0
    7.5775   -3.4578   -1.7943 H   0  0  0  0  0  0  0  0  0  0  0  0
    4.3000   -6.6177    0.9816 H   0  0  0  0  0  0  0  0  0  0  0  0
    5.8857   -6.0513    0.6769 H   0  0  0  0  0  0  0  0  0  0  0  0
    3.5171   -4.4366    3.7677 H   0  0  0  0  0  0  0  0  0  0  0  0
    4.4895   -7.8752    4.4909 H   0  0  0  0  0  0  0  0  0  0  0  0
    5.9600   -7.9033    3.4950 H   0  0  0  0  0  0  0  0  0  0  0  0
    4.3638   -7.9040    2.7381 H   0  0  0  0  0  0  0  0  0  0  0  0
    5.2248   -5.8384    5.6829 H   0  0  0  0  0  0  0  0  0  0  0  0
    5.7304   -4.4120    4.7704 H   0  0  0  0  0  0  0  0  0  0  0  0
    6.7346   -5.8585    4.7575 H   0  0  0  0  0  0  0  0  0  0  0  0
    5.8622    0.2968    0.6517 H   0  0  0  0  0  0  0  0  0  0  0  0
    6.9591   -0.6574   -0.2878 H   0  0  0  0  0  0  0  0  0  0  0  0
    7.0107   -0.7680    1.4525 H   0  0  0  0  0  0  0  0  0  0  0  0
    4.1641   -0.5267   -0.8015 H   0  0  0  0  0  0  0  0  0  0  0  0
    4.9641   -1.6966   -1.6716 H   0  0  0  0  0  0  0  0  0  0  0  0
    3.0920   -3.7394   -2.4854 H   0  0  0  0  0  0  0  0  0  0  0  0
    2.8823   -2.0544   -2.9451 H   0  0  0  0  0  0  0  0  0  0  0  0
    1.5544   -2.9254   -2.2366 H   0  0  0  0  0  0  0  0  0  0  0  0
    3.9693    0.3786    1.7472 H   0  0  0  0  0  0  0  0  0  0  0  0
    2.8054   -0.5851    2.6186 H   0  0  0  0  0  0  0  0  0  0  0  0
    2.7094   -0.4631    0.8914 H   0  0  0  0  0  0  0  0  0  0  0  0
    5.0964   -0.7169    3.4371 H   0  0  0  0  0  0  0  0  0  0  0  0
    6.1047   -2.0384    3.0364 H   0  0  0  0  0  0  0  0  0  0  0  0
    4.5483   -2.3414    3.8040 H   0  0  0  0  0  0  0  0  0  0  0  0
    2.3779   -1.5584   -0.7698 H   0  0  0  0  0  0  0  0  0  0  0  0
  1  2  1  0
  1 29  1  0
  1 30  1  0
  1 31  1  0
  2  3  2  0
  2  4  1  0
  4  5  1  0
  5 17  1  0
  5  6  1  0
  5 32  1  1
  6  9  1  0
  6  7  1  0
  6 33  1  6
  7 24  1  0
  7  8  1  0
  7 34  1  1
  8 26  1  0
  8  9  1  0
  8 35  1  1
  9 16  1  1
  9 10  1  0
 10 11  1  0
 10 36  1  0
 10 37  1  0
 11 12  1  6
 11 14  1  0
 11 21  1  0
 12 13  1  0
 12 38  1  0
 12 39  1  0
 13 40  1  0
 15 14  1  6
 15 18  1  0
 15 16  1  0
 15 17  1  0
 16 41  1  0
 16 42  1  0
 17 18  1  0
 17 43  1  1
 18 19  1  0
 18 20  1  0
 19 44  1  0
 19 45  1  0
 19 46  1  0
 20 47  1  0
 20 48  1  0
 20 49  1  0
 21 22  1  1
 21 23  1  0
 21 26  1  0
 22 50  1  0
 22 51  1  0
 22 52  1  0
 23 24  1  0
 23 53  1  0
 23 54  1  0
 24 25  1  0
 24 64  1  1
 25 55  1  0
 25 56  1  0
 25 57  1  0
 26 27  1  0
 26 28  1  0
 27 58  1  0
 27 59  1  0
 27 60  1  0
 28 61  1  0
 28 62  1  0
 28 63  1  0
M  CHG  1  24   1
M  END
>  <i_m_ct_stereo_status>  (2) 
1

>  <s_m_source_file>  (2) 
/var/tmp/pbs.5083858.sched01/tmpenikwtu0/0t3uzvhev.sdf

>  <i_m_source_file_index>  (2) 
1

>  <i_lp_mmshare_version>  (2) 
48012

>  <i_f3d_flags>  (2) 
0

>  <s_epik_input>  (2) 
W0NIM11DKD1PKU9bQ0BIXTFbQ0BASF0oQzIoW0NIM10pW0NIM10pW0NAQF0yKFtDSDJdMylPW0NAXShbQ0gyXTQpKFtDSDJdW09IXSlbQ0BAXShbQ0gzXSkoW0NIMl1ONVtDSDNdKUMoW0NIM10pKFtDSDNdKVtDQEhdNltDQEBIXTVbQ0BIXTFbQ0BAXTM0Ng==

>  <s_epik_cmdline>  (2) 
J2VwaWtfcHl0aG9uJywgJy1waHQnLCAnMi4wJywgJy1waCcsICc3LjAnLCAnLXRuJywgJzgnLCAnLW1hJywgJzIwMCcsICctaW1hZScsICc8aW5maWxlLm1hZT4nLCAnLW9tYWUnLCAnPG91dGZpbGUubWFlPic=

>  <r_epik_Ionization_Penalty>  (2) 
0.00360568

>  <r_epik_Ionization_Penalty_Charging>  (2) 
0.00360562

>  <r_epik_Ionization_Penalty_Neutral>  (2) 
5.07362e-08

>  <r_epik_State_Penalty>  (2) 
0.00256343

>  <r_epik_Charging_Adjusted_Penalty>  (2) 
0.00616906

>  <i_epik_Tot_Q>  (2) 
1

>  <i_epik_Tot_abs_Q>  (2) 
1

>  <s_epik_Chemistry_Notes>  (2) 
This compound has an ester and may undergo hydrolysis at high or low pH.

>  <s_lp_Force_Field>  (2) 
OPLS3e

>  <r_lp_Energy>  (2) 
302.438

>  <b_lp_Chiralities_Consistent>  (2) 
1

>  <s_lp_Variant>  (2) 
0:0-1

>  <s_i_glide_gridfile>  (2) 
pfpi4k_grid

>  <i_i_glide_lignum>  (2) 
1

>  <i_i_glide_rotatable_bonds>  (2) 
4

>  <r_i_docking_score>  (2) 
-4.53283

>  <r_i_glide_ligand_efficiency>  (2) 
-0.161887

>  <r_i_glide_ligand_efficiency_sa>  (2) 
-0.491584

>  <r_i_glide_ligand_efficiency_ln>  (2) 
-1.04631

>  <r_i_glide_gscore>  (2) 
-4.53283

>  <r_i_glide_lipo>  (2) 
-0.631027

>  <r_i_glide_hbond>  (2) 
-0.546666

>  <r_i_glide_metal>  (2) 
-0

>  <r_i_glide_rewards>  (2) 
-0.746344

>  <r_i_glide_evdw>  (2) 
-21.6772

>  <r_i_glide_ecoul>  (2) 
-10.9389

>  <r_i_glide_erotb>  (2) 
0.255778

>  <r_i_glide_esite>  (2) 
-0.139876

>  <r_i_glide_emodel>  (2) 
-43.0227

>  <r_i_glide_energy>  (2) 
-32.6161

>  <r_i_glide_einternal>  (2) 
0.756142

>  <r_i_glide_intrahb_reward>  (2) 
-0

>  <i_i_glide_confnum>  (2) 
3

>  <i_i_glide_posenum>  (2) 
18

>  <r_i_glide_eff_state_penalty>  (2) 
0

>  <ligand_id>  (2) 
0

>  <original_smiles>  (2) 
CC(=O)OC1C2C3C4C25CC(CO)(OC2(C5)C1C2(C)C)C(C)(CN3C)C4(C)C

>  <smiles>  (2) 
[H]OC([H])([H])C12OC34C([H])([H])C5(C1([H])[H])C([H])(C([H])(OC(=O)C([H])([H])[H])C3([H])C4(C([H])([H])[H])C([H])([H])[H])C1([H])C5([H])C(C([H])([H])[H])(C([H])([H])[H])C2(C([H])([H])[H])C([H])([H])[N+]1([H])C([H])([H])[H]

$$$$
0:0:2
     RDKit          3D

 64 69  0  0  1  0  0  0  0  0999 V2000
    1.8823   -9.2818    1.7265 C   0  0  0  0  0  0  0  0  0  0  0  0
    1.7568   -7.7586    1.7057 C   0  0  0  0  0  0  0  0  0  0  0  0
    0.6643   -7.1883    1.6140 O   0  0  0  0  0  0  0  0  0  0  0  0
    2.9526   -7.1473    1.8002 O   0  0  0  0  0  0  0  0  0  0  0  0
    3.0546   -5.7272    1.9406 C   0  0  2  0  0  0  0  0  0  0  0  0
    3.1200   -4.9462    0.4815 C   0  0  1  0  0  0  0  0  0  0  0  0
    2.7382   -3.3963    0.3317 C   0  0  1  0  0  0  0  0  0  0  0  0
    3.7810   -3.2411    1.3607 C   0  0  1  0  0  0  0  0  0  0  0  0
    4.5326   -4.4714    0.4263 C   0  0  2  0  0  0  0  0  0  0  0  0
    5.5420   -3.9464   -0.5610 C   0  0  0  0  0  0  0  0  0  0  0  0
    6.2525   -3.0511    0.4917 C   0  0  2  0  0  0  0  0  0  0  0  0
    7.7218   -2.7578    0.0799 C   0  0  0  0  0  0  0  0  0  0  0  0
    8.4554   -3.9012   -0.3221 O   0  0  0  0  0  0  0  0  0  0  0  0
    6.3556   -3.8003    1.8626 O   0  0  0  0  0  0  0  0  0  0  0  0
    5.6447   -5.1176    2.1522 C   0  0  2  0  0  0  0  0  0  0  0  0
    5.4695   -5.6256    0.8667 C   0  0  0  0  0  0  0  0  0  0  0  0
    4.3054   -5.3460    2.9389 C   0  0  2  0  0  0  0  0  0  0  0  0
    5.6569   -5.9650    3.3846 C   0  0  0  0  0  0  0  0  0  0  0  0
    5.8737   -7.4713    3.3354 C   0  0  0  0  0  0  0  0  0  0  0  0
    6.3418   -5.4002    4.6109 C   0  0  0  0  0  0  0  0  0  0  0  0
    5.2779   -1.7247    0.4851 C   0  0  1  0  0  0  0  0  0  0  0  0
    6.0769   -0.4221    0.5935 C   0  0  0  0  0  0  0  0  0  0  0  0
    4.2693   -1.5564   -0.7614 C   0  0  0  0  0  0  0  0  0  0  0  0
    3.0471   -2.4846   -0.8421 N   0  0  1  0  0  0  0  0  0  0  0  0
    2.6838   -2.9789   -2.1842 C   0  0  0  0  0  0  0  0  0  0  0  0
    4.3494   -1.8561    1.6743 C   0  0  0  0  0  0  0  0  0  0  0  0
    3.2108   -0.7822    1.7926 C   0  0  0  0  0  0  0  0  0  0  0  0
    5.0655   -1.7272    3.0577 C   0  0  0  0  0  0  0  0  0  0  0  0
    2.3904   -9.6256    2.6283 H   0  0  0  0  0  0  0  0  0  0  0  0
    2.4528   -9.6349    0.8685 H   0  0  0  0  0  0  0  0  0  0  0  0
    0.9056   -9.7597    1.6972 H   0  0  0  0  0  0  0  0  0  0  0  0
    2.1607   -5.3876    2.4702 H   0  0  0  0  0  0  0  0  0  0  0  0
    2.8357   -5.5523   -0.3680 H   0  0  0  0  0  0  0  0  0  0  0  0
    1.7903   -3.1491    0.7623 H   0  0  0  0  0  0  0  0  0  0  0  0
    3.1672   -3.4198    2.2479 H   0  0  0  0  0  0  0  0  0  0  0  0
    6.1939   -4.6530   -1.0535 H   0  0  0  0  0  0  0  0  0  0  0  0
    5.1831   -3.5470   -1.4968 H   0  0  0  0  0  0  0  0  0  0  0  0
    7.7424   -2.1096   -0.7918 H   0  0  0  0  0  0  0  0  0  0  0  0
    8.2618   -2.2551    0.8722 H   0  0  0  0  0  0  0  0  0  0  0  0
    9.0527   -3.6356   -1.0050 H   0  0  0  0  0  0  0  0  0  0  0  0
    5.0316   -6.6163    0.7969 H   0  0  0  0  0  0  0  0  0  0  0  0
    6.4848   -5.7756    0.4814 H   0  0  0  0  0  0  0  0  0  0  0  0
    3.9801   -4.6608    3.7143 H   0  0  0  0  0  0  0  0  0  0  0  0
    5.5094   -7.9362    4.2536 H   0  0  0  0  0  0  0  0  0  0  0  0
    6.9362   -7.6945    3.2285 H   0  0  0  0  0  0  0  0  0  0  0  0
    5.3414   -7.9288    2.5033 H   0  0  0  0  0  0  0  0  0  0  0  0
    5.9435   -5.8457    5.5209 H   0  0  0  0  0  0  0  0  0  0  0  0
    6.1875   -4.3226    4.6622 H   0  0  0  0  0  0  0  0  0  0  0  0
    7.4136   -5.5860    4.5647 H   0  0  0  0  0  0  0  0  0  0  0  0
    5.4614    0.4642    0.7340 H   0  0  0  0  0  0  0  0  0  0  0  0
    6.6143   -0.2416   -0.3222 H   0  0  0  0  0  0  0  0  0  0  0  0
    6.7787   -0.4899    1.4159 H   0  0  0  0  0  0  0  0  0  0  0  0
    3.8642   -0.5464   -0.7325 H   0  0  0  0  0  0  0  0  0  0  0  0
    4.8261   -1.5365   -1.6956 H   0  0  0  0  0  0  0  0  0  0  0  0
    3.2807   -3.8272   -2.5072 H   0  0  0  0  0  0  0  0  0  0  0  0
    2.7947   -2.1779   -2.9144 H   0  0  0  0  0  0  0  0  0  0  0  0
    1.6357   -3.2737   -2.2012 H   0  0  0  0  0  0  0  0  0  0  0  0
    3.6106    0.2316    1.8516 H   0  0  0  0  0  0  0  0  0  0  0  0
    2.6354   -0.9368    2.7063 H   0  0  0  0  0  0  0  0  0  0  0  0
    2.4773   -0.7722    0.9888 H   0  0  0  0  0  0  0  0  0  0  0  0
    4.9427   -0.7285    3.4823 H   0  0  0  0  0  0  0  0  0  0  0  0
    6.1437   -1.8506    3.0102 H   0  0  0  0  0  0  0  0  0  0  0  0
    4.6754   -2.4337    3.7893 H   0  0  0  0  0  0  0  0  0  0  0  0
    2.3089   -1.7960   -0.7212 H   0  0  0  0  0  0  0  0  0  0  0  0
  1  2  1  0
  1 29  1  0
  1 30  1  0
  1 31  1  0
  2  3  2  0
  2  4  1  0
  4  5  1  0
  5 17  1  0
  5  6  1  0
  5 32  1  1
  6  9  1  0
  6  7  1  0
  6 33  1  6
  7 24  1  0
  7  8  1  0
  7 34  1  1
  8 26  1  0
  8  9  1  0
  8 35  1  1
  9 16  1  1
  9 10  1  0
 10 11  1  0
 10 36  1  0
 10 37  1  0
 11 12  1  6
 11 14  1  0
 11 21  1  0
 12 13  1  0
 12 38  1  0
 12 39  1  0
 13 40  1  0
 15 14  1  6
 15 18  1  0
 15 16  1  0
 15 17  1  0
 16 41  1  0
 16 42  1  0
 17 18  1  0
 17 43  1  1
 18 19  1  0
 18 20  1  0
 19 44  1  0
 19 45  1  0
 19 46  1  0
 20 47  1  0
 20 48  1  0
 20 49  1  0
 21 22  1  1
 21 23  1  0
 21 26  1  0
 22 50  1  0
 22 51  1  0
 22 52  1  0
 23 24  1  0
 23 53  1  0
 23 54  1  0
 24 25  1  0
 24 64  1  1
 25 55  1  0
 25 56  1  0
 25 57  1  0
 26 27  1  0
 26 28  1  0
 27 58  1  0
 27 59  1  0
 27 60  1  0
 28 61  1  0
 28 62  1  0
 28 63  1  0
M  CHG  1  24   1
M  END
>  <i_m_ct_stereo_status>  (3) 
1

>  <s_m_source_file>  (3) 
/var/tmp/pbs.5083858.sched01/tmpenikwtu0/0t3uzvhev.sdf

>  <i_m_source_file_index>  (3) 
1

>  <i_lp_mmshare_version>  (3) 
48012

>  <i_f3d_flags>  (3) 
0

>  <s_epik_input>  (3) 
W0NIM11DKD1PKU9bQ0BIXTFbQ0BASF0oQzIoW0NIM10pW0NIM10pW0NAQF0yKFtDSDJdMylPW0NAXShbQ0gyXTQpKFtDSDJdW09IXSlbQ0BAXShbQ0gzXSkoW0NIMl1ONVtDSDNdKUMoW0NIM10pKFtDSDNdKVtDQEhdNltDQEBIXTVbQ0BIXTFbQ0BAXTM0Ng==

>  <s_epik_cmdline>  (3) 
J2VwaWtfcHl0aG9uJywgJy1waHQnLCAnMi4wJywgJy1waCcsICc3LjAnLCAnLXRuJywgJzgnLCAnLW1hJywgJzIwMCcsICctaW1hZScsICc8aW5maWxlLm1hZT4nLCAnLW9tYWUnLCAnPG91dGZpbGUubWFlPic=

>  <r_epik_Ionization_Penalty>  (3) 
0.00360568

>  <r_epik_Ionization_Penalty_Charging>  (3) 
0.00360562

>  <r_epik_Ionization_Penalty_Neutral>  (3) 
5.07362e-08

>  <r_epik_State_Penalty>  (3) 
0.00256343

>  <r_epik_Charging_Adjusted_Penalty>  (3) 
0.00616906

>  <i_epik_Tot_Q>  (3) 
1

>  <i_epik_Tot_abs_Q>  (3) 
1

>  <s_epik_Chemistry_Notes>  (3) 
This compound has an ester and may undergo hydrolysis at high or low pH.

>  <s_lp_Force_Field>  (3) 
OPLS3e

>  <r_lp_Energy>  (3) 
302.438

>  <b_lp_Chiralities_Consistent>  (3) 
1

>  <s_lp_Variant>  (3) 
0:0-1

>  <s_i_glide_gridfile>  (3) 
pfpi4k_grid

>  <i_i_glide_lignum>  (3) 
1

>  <i_i_glide_rotatable_bonds>  (3) 
4

>  <r_i_docking_score>  (3) 
-3.74734

>  <r_i_glide_ligand_efficiency>  (3) 
-0.133834

>  <r_i_glide_ligand_efficiency_sa>  (3) 
-0.406398

>  <r_i_glide_ligand_efficiency_ln>  (3) 
-0.864997

>  <r_i_glide_gscore>  (3) 
-3.74734

>  <r_i_glide_lipo>  (3) 
-0.77761

>  <r_i_glide_hbond>  (3) 
-0.2

>  <r_i_glide_metal>  (3) 
-0

>  <r_i_glide_rewards>  (3) 
-0.746344

>  <r_i_glide_evdw>  (3) 
-20.3671

>  <r_i_glide_ecoul>  (3) 
-7.76859

>  <r_i_glide_erotb>  (3) 
0.255778

>  <r_i_glide_esite>  (3) 
-0.0955264

>  <r_i_glide_emodel>  (3) 
-35.7985

>  <r_i_glide_energy>  (3) 
-28.1357

>  <r_i_glide_einternal>  (3) 
2.33833

>  <r_i_glide_intrahb_reward>  (3) 
-0

>  <i_i_glide_confnum>  (3) 
6

>  <i_i_glide_posenum>  (3) 
25

>  <r_i_glide_eff_state_penalty>  (3) 
0

>  <ligand_id>  (3) 
0

>  <original_smiles>  (3) 
CC(=O)OC1C2C3C4C25CC(CO)(OC2(C5)C1C2(C)C)C(C)(CN3C)C4(C)C

>  <smiles>  (3) 
[H]OC([H])([H])C12OC34C([H])([H])C5(C1([H])[H])C([H])(C([H])(OC(=O)C([H])([H])[H])C3([H])C4(C([H])([H])[H])C([H])([H])[H])C1([H])C5([H])C(C([H])([H])[H])(C([H])([H])[H])C2(C([H])([H])[H])C([H])([H])[N+]1([H])C([H])([H])[H]

$$$$
1:0:0
     RDKit          3D

 83 89  0  0  1  0  0  0  0  0999 V2000
    2.0055    0.8184    4.2884 C   0  0  0  0  0  0  0  0  0  0  0  0
    2.2457   -0.4083    3.3928 C   0  0  2  0  0  0  0  0  0  0  0  0
    0.9346   -1.0200    2.8884 C   0  0  0  0  0  0  0  0  0  0  0  0
    0.1745   -1.6590    4.0570 C   0  0  0  0  0  0  0  0  0  0  0  0
    1.0755   -2.6785    4.7843 C   0  0  2  0  0  0  0  0  0  0  0  0
    2.2751   -2.0668    5.1798 O   0  0  0  0  0  0  0  0  0  0  0  0
    3.0482   -1.4964    4.1238 C   0  0  0  0  0  0  0  0  0  0  0  0
    1.3093   -3.7504    3.9206 O   0  0  0  0  0  0  0  0  0  0  0  0
    1.5731   -4.9318    4.6699 C   0  0  1  0  0  0  0  0  0  0  0  0
    0.5849   -4.7888    5.8406 C   0  0  1  0  0  0  0  0  0  0  0  0
    0.8168   -5.6048    7.1647 C   0  0  1  0  0  0  0  0  0  0  0  0
    0.2192   -6.8517    7.1217 O   0  0  0  0  0  0  0  0  0  0  0  0
    0.9914   -8.0088    6.8951 C   0  0  0  0  0  0  0  0  0  0  0  0
    2.0877   -7.8712    5.7252 C   0  0  1  0  0  0  0  0  0  0  0  0
    2.8143   -9.3071    5.6890 C   0  0  2  0  0  0  0  0  0  0  0  0
    1.8936  -10.4411    5.2229 C   0  0  0  0  0  0  0  0  0  0  0  0
    1.5999  -10.2249    3.7097 C   0  0  1  0  0  0  0  0  0  0  0  0
    0.3979  -11.0239    3.1834 C   0  0  0  0  0  0  0  0  0  0  0  0
    1.5948   -8.7305    3.2744 C   0  0  0  0  0  0  0  0  0  0  0  0
    1.8111   -8.4363    2.0991 O   0  0  0  0  0  0  0  0  0  0  0  0
    1.2623   -7.6258    4.3398 C   0  0  1  0  0  0  0  0  0  0  0  0
   -0.2984   -7.8313    4.4251 C   0  0  0  0  0  0  0  0  0  0  0  0
    1.5224   -6.1827    3.7315 C   0  0  1  0  0  0  0  0  0  0  0  0
    0.6096   -5.9262    2.6711 O   0  0  0  0  0  0  0  0  0  0  0  0
    3.8281   -9.5789    6.6912 O   0  0  0  0  0  0  0  0  0  0  0  0
    4.6599   -8.5028    6.9940 C   0  0  0  0  0  0  0  0  0  0  0  0
    4.5846   -8.1014    8.2921 C   0  0  0  0  0  0  0  0  0  0  0  0
    4.0629   -6.6706    8.6486 C   0  0  1  0  0  0  0  0  0  0  0  0
    5.0307   -5.9499    9.3906 O   0  0  0  0  0  0  0  0  0  0  0  0
    3.3468   -5.8654    7.4176 C   0  0  2  0  0  0  0  0  0  0  0  0
    3.9783   -4.4450    7.2731 C   0  0  0  0  0  0  0  0  0  0  0  0
    2.0325   -5.4713    7.8739 O   0  0  0  0  0  0  0  0  0  0  0  0
    3.2817   -6.7908    6.1075 C   0  0  2  0  0  0  0  0  0  0  0  0
    4.7269   -7.4026    5.9087 C   0  0  0  0  0  0  0  0  0  0  0  0
    5.9962   -6.5354    6.1812 C   0  0  0  0  0  0  0  0  0  0  0  0
    5.0511   -7.8009    4.4282 C   0  0  0  0  0  0  0  0  0  0  0  0
    0.3730   -3.2748    6.0294 C   0  0  1  0  0  0  0  0  0  0  0  0
    0.7892   -2.5719    7.3487 C   0  0  0  0  0  0  0  0  0  0  0  0
   -0.1845   -2.7569    8.3564 O   0  0  0  0  0  0  0  0  0  0  0  0
    1.4830    0.5568    5.2075 H   0  0  0  0  0  0  0  0  0  0  0  0
    1.4075    1.5728    3.7795 H   0  0  0  0  0  0  0  0  0  0  0  0
    2.9428    1.2830    4.5865 H   0  0  0  0  0  0  0  0  0  0  0  0
    2.8170   -0.0850    2.5258 H   0  0  0  0  0  0  0  0  0  0  0  0
    0.3164   -0.2579    2.4069 H   0  0  0  0  0  0  0  0  0  0  0  0
    1.1366   -1.7680    2.1193 H   0  0  0  0  0  0  0  0  0  0  0  0
   -0.1721   -0.9070    4.7646 H   0  0  0  0  0  0  0  0  0  0  0  0
   -0.7043   -2.1881    3.6933 H   0  0  0  0  0  0  0  0  0  0  0  0
    3.3636   -2.2834    3.4354 H   0  0  0  0  0  0  0  0  0  0  0  0
    3.9597   -1.0735    4.5487 H   0  0  0  0  0  0  0  0  0  0  0  0
    2.5913   -4.7786    4.9801 H   0  0  0  0  0  0  0  0  0  0  0  0
   -0.3776   -5.1176    5.4543 H   0  0  0  0  0  0  0  0  0  0  0  0
    0.1317   -5.1844    7.8917 H   0  0  0  0  0  0  0  0  0  0  0  0
    1.4368   -8.2969    7.8534 H   0  0  0  0  0  0  0  0  0  0  0  0
    0.2694   -8.8046    6.7285 H   0  0  0  0  0  0  0  0  0  0  0  0
    3.4745   -9.4093    4.8513 H   0  0  0  0  0  0  0  0  0  0  0  0
    2.4144  -11.3921    5.3442 H   0  0  0  0  0  0  0  0  0  0  0  0
    0.9853  -10.5440    5.8131 H   0  0  0  0  0  0  0  0  0  0  0  0
    2.4612  -10.6477    3.1925 H   0  0  0  0  0  0  0  0  0  0  0  0
    0.3741  -11.0270    2.0934 H   0  0  0  0  0  0  0  0  0  0  0  0
   -0.5531  -10.6244    3.5267 H   0  0  0  0  0  0  0  0  0  0  0  0
    0.4570  -12.0635    3.5076 H   0  0  0  0  0  0  0  0  0  0  0  0
   -0.8346   -7.0940    5.0126 H   0  0  0  0  0  0  0  0  0  0  0  0
   -0.5763   -8.8090    4.8175 H   0  0  0  0  0  0  0  0  0  0  0  0
   -0.7749   -7.8041    3.4419 H   0  0  0  0  0  0  0  0  0  0  0  0
    2.4931   -6.1959    3.2374 H   0  0  0  0  0  0  0  0  0  0  0  0
    0.7158   -6.6441    2.0568 H   0  0  0  0  0  0  0  0  0  0  0  0
    4.3082   -8.8378    9.0311 H   0  0  0  0  0  0  0  0  0  0  0  0
    3.2693   -6.8705    9.3693 H   0  0  0  0  0  0  0  0  0  0  0  0
    5.7564   -5.7372    8.8204 H   0  0  0  0  0  0  0  0  0  0  0  0
    5.0369   -4.4070    7.0533 H   0  0  0  0  0  0  0  0  0  0  0  0
    3.8757   -3.8997    8.2102 H   0  0  0  0  0  0  0  0  0  0  0  0
    3.4996   -3.8206    6.5301 H   0  0  0  0  0  0  0  0  0  0  0  0
    2.9154   -7.2609    6.9433 H   0  0  0  0  0  0  0  0  0  0  0  0
    6.0261   -5.6387    5.5580 H   0  0  0  0  0  0  0  0  0  0  0  0
    6.8933   -7.1100    5.9410 H   0  0  0  0  0  0  0  0  0  0  0  0
    6.1577   -6.2399    7.2104 H   0  0  0  0  0  0  0  0  0  0  0  0
    5.7401   -7.1183    3.9275 H   0  0  0  0  0  0  0  0  0  0  0  0
    4.1794   -7.7875    3.7755 H   0  0  0  0  0  0  0  0  0  0  0  0
    5.5218   -8.7854    4.3830 H   0  0  0  0  0  0  0  0  0  0  0  0
   -0.6934   -3.0926    5.8995 H   0  0  0  0  0  0  0  0  0  0  0  0
    1.7684   -2.8881    7.7064 H   0  0  0  0  0  0  0  0  0  0  0  0
    0.8533   -1.4941    7.1943 H   0  0  0  0  0  0  0  0  0  0  0  0
   -0.0962   -3.6333    8.7050 H   0  0  0  0  0  0  0  0  0  0  0  0
  1  2  1  0
  1 40  1  0
  1 41  1  0
  1 42  1  0
  2  7  1  0
  2  3  1  0
  2 43  1  6
  3  4  1  0
  3 44  1  0
  3 45  1  0
  4  5  1  0
  4 46  1  0
  4 47  1  0
  5 37  1  0
  5  6  1  1
  5  8  1  0
  6  7  1  0
  7 48  1  0
  7 49  1  0
  8  9  1  0
  9 23  1  0
  9 10  1  0
  9 50  1  1
 10 11  1  0
 10 37  1  0
 10 51  1  6
 11 32  1  0
 11 12  1  0
 11 52  1  1
 12 13  1  0
 14 13  1  1
 13 53  1  0
 13 54  1  0
 14 21  1  0
 14 33  1  0
 14 15  1  0
 15 16  1  0
 15 25  1  0
 15 55  1  6
 16 17  1  0
 16 56  1  0
 16 57  1  0
 17 18  1  0
 17 19  1  0
 17 58  1  6
 18 59  1  0
 18 60  1  0
 18 61  1  0
 19 20  2  0
 19 21  1  0
 21 22  1  1
 21 23  1  0
 22 62  1  0
 22 63  1  0
 22 64  1  0
 23 24  1  0
 23 65  1  6
 24 66  1  0
 25 26  1  0
 26 34  1  0
 26 27  2  0
 27 28  1  0
 27 67  1  0
 28 29  1  0
 28 30  1  0
 28 68  1  1
 29 69  1  0
 30 31  1  6
 30 32  1  0
 30 33  1  0
 31 70  1  0
 31 71  1  0
 31 72  1  0
 33 34  1  0
 33 73  1  6
 34 35  1  0
 34 36  1  0
 35 74  1  0
 35 75  1  0
 35 76  1  0
 36 77  1  0
 36 78  1  0
 36 79  1  0
 37 38  1  0
 37 80  1  6
 38 39  1  0
 38 81  1  0
 38 82  1  0
 39 83  1  0
M  END
>  <i_m_ct_stereo_status>  (4) 
1

>  <s_m_source_file>  (4) 
/var/tmp/pbs.5083858.sched01/tmpenikwtu0/0t3uzvhev.sdf

>  <i_m_source_file_index>  (4) 
2

>  <i_lp_mmshare_version>  (4) 
48012

>  <i_f3d_flags>  (4) 
0

>  <s_epik_input>  (4) 
TzFbQ0gyXVtDQEhdKFtDSDNdKVtDSDJdW0NIMl1bQ0BAXTEyT1tDQEhdM1tDQEhdKFtDQEhdMltDSDJdW09IXSlbQ0BIXTRPW0NIMl1bQ0BAXTU2W0NASF0oW0NIMl1bQ0BASF0oW0NIM10pQyg9TylbQ0BdNShbQ0gzXSlbQ0BIXTNbT0hdKU9DNz1bQ0hdW0NAQEhdKFtPSF0pW0NAQF0oTzQpKFtDSDNdKVtDQEBIXTZDNyhbQ0gzXSlbQ0gzXQ==

>  <s_epik_cmdline>  (4) 
J2VwaWtfcHl0aG9uJywgJy1waHQnLCAnMi4wJywgJy1waCcsICc3LjAnLCAnLXRuJywgJzgnLCAnLW1hJywgJzIwMCcsICctaW1hZScsICc8aW5maWxlLm1hZT4nLCAnLW9tYWUnLCAnPG91dGZpbGUubWFlPic=

>  <r_lp_tautomer_probability>  (4) 
1

>  <r_epik_Ionization_Penalty>  (4) 
9.12615e-06

>  <r_epik_Ionization_Penalty_Charging>  (4) 
0

>  <r_epik_Ionization_Penalty_Neutral>  (4) 
9.12615e-06

>  <r_epik_State_Penalty>  (4) 
-0

>  <r_epik_Charging_Adjusted_Penalty>  (4) 
0

>  <i_epik_Tot_Q>  (4) 
0

>  <i_epik_Tot_abs_Q>  (4) 
0

>  <s_epik_Chemistry_Notes>  (4) 
This compound contains an acetal/aminal-like group ( X-CH(R)-Y where X, Y are N, S, or O) that may be acid/base labile, releasing an aldehyde.

>  <s_lp_Force_Field>  (4) 
OPLS3e

>  <r_lp_Energy>  (4) 
237.152

>  <b_lp_Chiralities_Consistent>  (4) 
1

>  <s_lp_Variant>  (4) 
1:0-1

>  <s_i_glide_gridfile>  (4) 
pfpi4k_grid

>  <i_i_glide_lignum>  (4) 
2

>  <i_i_glide_rotatable_bonds>  (4) 
4

>  <r_i_docking_score>  (4) 
-2.22253

>  <r_i_glide_ligand_efficiency>  (4) 
-0.0569879

>  <r_i_glide_ligand_efficiency_sa>  (4) 
-0.193258

>  <r_i_glide_ligand_efficiency_ln>  (4) 
-0.476573

>  <r_i_glide_gscore>  (4) 
-2.22253

>  <r_i_glide_lipo>  (4) 
-0.0531413

>  <r_i_glide_hbond>  (4) 
-0.152412

>  <r_i_glide_metal>  (4) 
-0

>  <r_i_glide_rewards>  (4) 
-0.507888

>  <r_i_glide_evdw>  (4) 
-19.1312

>  <r_i_glide_ecoul>  (4) 
-4.06946

>  <r_i_glide_erotb>  (4) 
0.0688396

>  <r_i_glide_esite>  (4) 
-0.0109464

>  <r_i_glide_emodel>  (4) 
-31.2906

>  <r_i_glide_energy>  (4) 
-23.2007

>  <r_i_glide_einternal>  (4) 
1.31205

>  <r_i_glide_intrahb_reward>  (4) 
-0.5

>  <i_i_glide_confnum>  (4) 
1

>  <i_i_glide_posenum>  (4) 
27

>  <r_i_glide_eff_state_penalty>  (4) 
0

>  <ligand_id>  (4) 
1

>  <original_smiles>  (4) 
CC1CCC2(OC1)OC1C(C3OCC45C(CC(C)C(=O)C4(C)C1O)OC1=CC(O)C(C)(O3)C5C1(C)C)C2CO

>  <smiles>  (4) 
[H]OC([H])([H])C1([H])C2(OC([H])([H])C([H])(C([H])([H])[H])C([H])([H])C2([H])[H])OC2([H])C([H])(O[H])C3(C([H])([H])[H])C(=O)C([H])(C([H])([H])[H])C([H])([H])C4([H])OC5=C([H])C([H])(O[H])C6(C([H])([H])[H])OC([H])(OC([H])([H])C43C6([H])C5(C([H])([H])[H])C([H])([H])[H])C21[H]

$$$$
1:0:1
     RDKit          3D

 83 89  0  0  1  0  0  0  0  0999 V2000
    3.1497    0.8355    3.3429 C   0  0  0  0  0  0  0  0  0  0  0  0
    3.3964   -0.5076    2.6363 C   0  0  2  0  0  0  0  0  0  0  0  0
    2.1300   -1.0413    1.9577 C   0  0  0  0  0  0  0  0  0  0  0  0
    1.1068   -1.4550    3.0205 C   0  0  0  0  0  0  0  0  0  0  0  0
    1.7358   -2.4648    4.0021 C   0  0  2  0  0  0  0  0  0  0  0  0
    2.9108   -1.9312    4.5562 O   0  0  0  0  0  0  0  0  0  0  0  0
    3.9205   -1.5734    3.6129 C   0  0  0  0  0  0  0  0  0  0  0  0
    1.9912   -3.6502    3.3115 O   0  0  0  0  0  0  0  0  0  0  0  0
    1.9747   -4.7551    4.2091 C   0  0  1  0  0  0  0  0  0  0  0  0
    0.8198   -4.3772    5.1508 C   0  0  1  0  0  0  0  0  0  0  0  0
    0.7168   -5.0529    6.5676 C   0  0  1  0  0  0  0  0  0  0  0  0
   -0.0105   -6.2304    6.5336 O   0  0  0  0  0  0  0  0  0  0  0  0
    0.6488   -7.4757    6.5801 C   0  0  0  0  0  0  0  0  0  0  0  0
    1.9428   -7.5842    5.6305 C   0  0  1  0  0  0  0  0  0  0  0  0
    2.4874   -9.0782    5.8767 C   0  0  2  0  0  0  0  0  0  0  0  0
    1.5344  -10.1634    5.3611 C   0  0  0  0  0  0  0  0  0  0  0  0
    1.5376  -10.1026    3.8079 C   0  0  1  0  0  0  0  0  0  0  0  0
    0.3598  -10.8363    3.1506 C   0  0  0  0  0  0  0  0  0  0  0  0
    1.7894   -8.6788    3.2297 C   0  0  0  0  0  0  0  0  0  0  0  0
    2.2438   -8.5527    2.0938 O   0  0  0  0  0  0  0  0  0  0  0  0
    1.4091   -7.4249    4.0958 C   0  0  1  0  0  0  0  0  0  0  0  0
   -0.1553   -7.4654    3.9060 C   0  0  0  0  0  0  0  0  0  0  0  0
    1.9381   -6.0960    3.4046 C   0  0  1  0  0  0  0  0  0  0  0  0
    1.2518   -5.8702    2.1763 O   0  0  0  0  0  0  0  0  0  0  0  0
    3.2645   -9.3245    7.0773 O   0  0  0  0  0  0  0  0  0  0  0  0
    4.1545   -8.3091    7.4214 C   0  0  0  0  0  0  0  0  0  0  0  0
    3.8999   -7.7495    8.6352 C   0  0  0  0  0  0  0  0  0  0  0  0
    3.4980   -6.2413    8.7415 C   0  0  1  0  0  0  0  0  0  0  0  0
    4.3981   -5.5365    9.5777 O   0  0  0  0  0  0  0  0  0  0  0  0
    3.1115   -5.5239    7.3228 C   0  0  2  0  0  0  0  0  0  0  0  0
    3.9228   -4.1999    7.1587 C   0  0  0  0  0  0  0  0  0  0  0  0
    1.7928   -4.9511    7.4794 O   0  0  0  0  0  0  0  0  0  0  0  0
    3.1694   -6.5889    6.1231 C   0  0  2  0  0  0  0  0  0  0  0  0
    4.5435   -7.3598    6.2632 C   0  0  0  0  0  0  0  0  0  0  0  0
    5.8381   -6.5955    6.6833 C   0  0  0  0  0  0  0  0  0  0  0  0
    5.0737   -7.9636    4.9182 C   0  0  0  0  0  0  0  0  0  0  0  0
    0.7578   -2.8379    5.1410 C   0  0  1  0  0  0  0  0  0  0  0  0
    1.0092   -2.0236    6.4351 C   0  0  0  0  0  0  0  0  0  0  0  0
   -0.1303   -2.0549    7.2759 O   0  0  0  0  0  0  0  0  0  0  0  0
    2.4444    0.7384    4.1672 H   0  0  0  0  0  0  0  0  0  0  0  0
    2.7460    1.5787    2.6568 H   0  0  0  0  0  0  0  0  0  0  0  0
    4.0675    1.2381    3.7658 H   0  0  0  0  0  0  0  0  0  0  0  0
    4.1469   -0.3486    1.8653 H   0  0  0  0  0  0  0  0  0  0  0  0
    1.7007   -0.2857    1.2954 H   0  0  0  0  0  0  0  0  0  0  0  0
    2.3699   -1.8927    1.3179 H   0  0  0  0  0  0  0  0  0  0  0  0
    0.7327   -0.5923    3.5706 H   0  0  0  0  0  0  0  0  0  0  0  0
    0.2480   -1.9319    2.5556 H   0  0  0  0  0  0  0  0  0  0  0  0
    4.2562   -2.4655    3.0796 H   0  0  0  0  0  0  0  0  0  0  0  0
    4.7877   -1.1949    4.1563 H   0  0  0  0  0  0  0  0  0  0  0  0
    2.9334   -4.6693    4.6899 H   0  0  0  0  0  0  0  0  0  0  0  0
   -0.0915   -4.6526    4.6246 H   0  0  0  0  0  0  0  0  0  0  0  0
   -0.0393   -4.4979    7.1081 H   0  0  0  0  0  0  0  0  0  0  0  0
    0.8789   -7.6852    7.6303 H   0  0  0  0  0  0  0  0  0  0  0  0
   -0.1224   -8.2092    6.3605 H   0  0  0  0  0  0  0  0  0  0  0  0
    3.2685   -9.3464    5.1942 H   0  0  0  0  0  0  0  0  0  0  0  0
    1.9142  -11.1373    5.6735 H   0  0  0  0  0  0  0  0  0  0  0  0
    0.5310  -10.1073    5.7793 H   0  0  0  0  0  0  0  0  0  0  0  0
    2.4202  -10.6671    3.5076 H   0  0  0  0  0  0  0  0  0  0  0  0
    0.5323  -10.9705    2.0830 H   0  0  0  0  0  0  0  0  0  0  0  0
   -0.5818  -10.3071    3.2679 H   0  0  0  0  0  0  0  0  0  0  0  0
    0.2336  -11.8266    3.5900 H   0  0  0  0  0  0  0  0  0  0  0  0
   -0.6957   -6.6144    4.3066 H   0  0  0  0  0  0  0  0  0  0  0  0
   -0.6119   -8.3563    4.3345 H   0  0  0  0  0  0  0  0  0  0  0  0
   -0.4428   -7.5089    2.8522 H   0  0  0  0  0  0  0  0  0  0  0  0
    2.9744   -6.2659    3.1110 H   0  0  0  0  0  0  0  0  0  0  0  0
    1.4849   -6.5969    1.6102 H   0  0  0  0  0  0  0  0  0  0  0  0
    3.4121   -8.3612    9.3783 H   0  0  0  0  0  0  0  0  0  0  0  0
    2.5715   -6.2730    9.3160 H   0  0  0  0  0  0  0  0  0  0  0  0
    5.2372   -5.4758    9.1417 H   0  0  0  0  0  0  0  0  0  0  0  0
    5.0006   -4.2933    7.1408 H   0  0  0  0  0  0  0  0  0  0  0  0
    3.7213   -3.5377    7.9997 H   0  0  0  0  0  0  0  0  0  0  0  0
    3.6612   -3.6262    6.2793 H   0  0  0  0  0  0  0  0  0  0  0  0
    2.6075   -6.9157    6.9179 H   0  0  0  0  0  0  0  0  0  0  0  0
    6.0841   -5.7876    5.9907 H   0  0  0  0  0  0  0  0  0  0  0  0
    6.6889   -7.2800    6.6760 H   0  0  0  0  0  0  0  0  0  0  0  0
    5.8491   -6.1956    7.6892 H   0  0  0  0  0  0  0  0  0  0  0  0
    5.9166   -7.4176    4.4902 H   0  0  0  0  0  0  0  0  0  0  0  0
    4.3391   -7.9431    4.1147 H   0  0  0  0  0  0  0  0  0  0  0  0
    5.4240   -8.9880    5.0609 H   0  0  0  0  0  0  0  0  0  0  0  0
   -0.2412   -2.5694    4.7955 H   0  0  0  0  0  0  0  0  0  0  0  0
    1.8830   -2.3641    6.9883 H   0  0  0  0  0  0  0  0  0  0  0  0
    1.1802   -0.9723    6.1979 H   0  0  0  0  0  0  0  0  0  0  0  0
   -0.1880   -2.9231    7.6483 H   0  0  0  0  0  0  0  0  0  0  0  0
  1  2  1  0
  1 40  1  0
  1 41  1  0
  1 42  1  0
  2  7  1  0
  2  3  1  0
  2 43  1  6
  3  4  1  0
  3 44  1  0
  3 45  1  0
  4  5  1  0
  4 46  1  0
  4 47  1  0
  5 37  1  0
  5  6  1  1
  5  8  1  0
  6  7  1  0
  7 48  1  0
  7 49  1  0
  8  9  1  0
  9 23  1  0
  9 10  1  0
  9 50  1  1
 10 11  1  0
 10 37  1  0
 10 51  1  6
 11 32  1  0
 11 12  1  0
 11 52  1  1
 12 13  1  0
 14 13  1  1
 13 53  1  0
 13 54  1  0
 14 21  1  0
 14 33  1  0
 14 15  1  0
 15 16  1  0
 15 25  1  0
 15 55  1  6
 16 17  1  0
 16 56  1  0
 16 57  1  0
 17 18  1  0
 17 19  1  0
 17 58  1  6
 18 59  1  0
 18 60  1  0
 18 61  1  0
 19 20  2  0
 19 21  1  0
 21 22  1  1
 21 23  1  0
 22 62  1  0
 22 63  1  0
 22 64  1  0
 23 24  1  0
 23 65  1  6
 24 66  1  0
 25 26  1  0
 26 34  1  0
 26 27  2  0
 27 28  1  0
 27 67  1  0
 28 29  1  0
 28 30  1  0
 28 68  1  1
 29 69  1  0
 30 31  1  6
 30 32  1  0
 30 33  1  0
 31 70  1  0
 31 71  1  0
 31 72  1  0
 33 34  1  0
 33 73  1  6
 34 35  1  0
 34 36  1  0
 35 74  1  0
 35 75  1  0
 35 76  1  0
 36 77  1  0
 36 78  1  0
 36 79  1  0
 37 38  1  0
 37 80  1  6
 38 39  1  0
 38 81  1  0
 38 82  1  0
 39 83  1  0
M  END
>  <i_m_ct_stereo_status>  (5) 
1

>  <s_m_source_file>  (5) 
/var/tmp/pbs.5083858.sched01/tmpenikwtu0/0t3uzvhev.sdf

>  <i_m_source_file_index>  (5) 
2

>  <i_lp_mmshare_version>  (5) 
48012

>  <i_f3d_flags>  (5) 
0

>  <s_epik_input>  (5) 
TzFbQ0gyXVtDQEhdKFtDSDNdKVtDSDJdW0NIMl1bQ0BAXTEyT1tDQEhdM1tDQEhdKFtDQEhdMltDSDJdW09IXSlbQ0BIXTRPW0NIMl1bQ0BAXTU2W0NASF0oW0NIMl1bQ0BASF0oW0NIM10pQyg9TylbQ0BdNShbQ0gzXSlbQ0BIXTNbT0hdKU9DNz1bQ0hdW0NAQEhdKFtPSF0pW0NAQF0oTzQpKFtDSDNdKVtDQEBIXTZDNyhbQ0gzXSlbQ0gzXQ==

>  <s_epik_cmdline>  (5) 
J2VwaWtfcHl0aG9uJywgJy1waHQnLCAnMi4wJywgJy1waCcsICc3LjAnLCAnLXRuJywgJzgnLCAnLW1hJywgJzIwMCcsICctaW1hZScsICc8aW5maWxlLm1hZT4nLCAnLW9tYWUnLCAnPG91dGZpbGUubWFlPic=

>  <r_lp_tautomer_probability>  (5) 
1

>  <r_epik_Ionization_Penalty>  (5) 
9.12615e-06

>  <r_epik_Ionization_Penalty_Charging>  (5) 
0

>  <r_epik_Ionization_Penalty_Neutral>  (5) 
9.12615e-06

>  <r_epik_State_Penalty>  (5) 
-0

>  <r_epik_Charging_Adjusted_Penalty>  (5) 
0

>  <i_epik_Tot_Q>  (5) 
0

>  <i_epik_Tot_abs_Q>  (5) 
0

>  <s_epik_Chemistry_Notes>  (5) 
This compound contains an acetal/aminal-like group ( X-CH(R)-Y where X, Y are N, S, or O) that may be acid/base labile, releasing an aldehyde.

>  <s_lp_Force_Field>  (5) 
OPLS3e

>  <r_lp_Energy>  (5) 
237.152

>  <b_lp_Chiralities_Consistent>  (5) 
1

>  <s_lp_Variant>  (5) 
1:0-1

>  <s_i_glide_gridfile>  (5) 
pfpi4k_grid

>  <i_i_glide_lignum>  (5) 
2

>  <i_i_glide_rotatable_bonds>  (5) 
4

>  <r_i_docking_score>  (5) 
-1.95366

>  <r_i_glide_ligand_efficiency>  (5) 
-0.0500937

>  <r_i_glide_ligand_efficiency_sa>  (5) 
-0.169878

>  <r_i_glide_ligand_efficiency_ln>  (5) 
-0.418919

>  <r_i_glide_gscore>  (5) 
-1.95366

>  <r_i_glide_lipo>  (5) 
-0.0218163

>  <r_i_glide_hbond>  (5) 
0

>  <r_i_glide_metal>  (5) 
-0

>  <r_i_glide_rewards>  (5) 
-0.51518

>  <r_i_glide_evdw>  (5) 
-19.6894

>  <r_i_glide_ecoul>  (5) 
-3.27416

>  <r_i_glide_erotb>  (5) 
0.0688396

>  <r_i_glide_esite>  (5) 
-0.00990383

>  <r_i_glide_emodel>  (5) 
-30.58

>  <r_i_glide_energy>  (5) 
-22.9636

>  <r_i_glide_einternal>  (5) 
1.26555

>  <r_i_glide_intrahb_reward>  (5) 
-0.5

>  <i_i_glide_confnum>  (5) 
2

>  <i_i_glide_posenum>  (5) 
19

>  <r_i_glide_eff_state_penalty>  (5) 
0

>  <ligand_id>  (5) 
1

>  <original_smiles>  (5) 
CC1CCC2(OC1)OC1C(C3OCC45C(CC(C)C(=O)C4(C)C1O)OC1=CC(O)C(C)(O3)C5C1(C)C)C2CO

>  <smiles>  (5) 
[H]OC([H])([H])C1([H])C2(OC([H])([H])C([H])(C([H])([H])[H])C([H])([H])C2([H])[H])OC2([H])C([H])(O[H])C3(C([H])([H])[H])C(=O)C([H])(C([H])([H])[H])C([H])([H])C4([H])OC5=C([H])C([H])(O[H])C6(C([H])([H])[H])OC([H])(OC([H])([H])C43C6([H])C5(C([H])([H])[H])C([H])([H])[H])C21[H]

$$$$
1:0:2
     RDKit          3D

 83 89  0  0  1  0  0  0  0  0999 V2000
    1.7365    0.8364    4.5550 C   0  0  0  0  0  0  0  0  0  0  0  0
    2.0234   -0.3600    3.6313 C   0  0  2  0  0  0  0  0  0  0  0  0
    0.7362   -1.0066    3.1044 C   0  0  0  0  0  0  0  0  0  0  0  0
   -0.0125   -1.6990    4.2498 C   0  0  0  0  0  0  0  0  0  0  0  0
    0.9236   -2.6970    4.9639 C   0  0  2  0  0  0  0  0  0  0  0  0
    2.0951   -2.0449    5.3796 O   0  0  0  0  0  0  0  0  0  0  0  0
    2.8603   -1.4343    4.3426 C   0  0  0  0  0  0  0  0  0  0  0  0
    1.2050   -3.7432    4.0838 O   0  0  0  0  0  0  0  0  0  0  0  0
    1.5078   -4.9292    4.8113 C   0  0  1  0  0  0  0  0  0  0  0  0
    0.5111   -4.8408    5.9803 C   0  0  1  0  0  0  0  0  0  0  0  0
    0.7625   -5.6650    7.2955 C   0  0  1  0  0  0  0  0  0  0  0  0
    0.2178   -6.9369    7.2245 O   0  0  0  0  0  0  0  0  0  0  0  0
    1.0223   -8.0688    6.9673 C   0  0  0  0  0  0  0  0  0  0  0  0
    2.1168   -7.8722    5.8074 C   0  0  1  0  0  0  0  0  0  0  0  0
    2.8925   -9.2819    5.7439 C   0  0  2  0  0  0  0  0  0  0  0  0
    2.0151  -10.4383    5.2478 C   0  0  0  0  0  0  0  0  0  0  0  0
    1.7239  -10.2008    3.7374 C   0  0  1  0  0  0  0  0  0  0  0  0
    0.5487  -11.0225    3.1882 C   0  0  0  0  0  0  0  0  0  0  0  0
    1.6671   -8.6973    3.3355 C   0  0  0  0  0  0  0  0  0  0  0  0
    1.8774   -8.3721    2.1677 O   0  0  0  0  0  0  0  0  0  0  0  0
    1.2900   -7.6262    4.4222 C   0  0  1  0  0  0  0  0  0  0  0  0
   -0.2629   -7.8872    4.4935 C   0  0  0  0  0  0  0  0  0  0  0  0
    1.5061   -6.1622    3.8456 C   0  0  1  0  0  0  0  0  0  0  0  0
    0.5980   -5.9123    2.7801 O   0  0  0  0  0  0  0  0  0  0  0  0
    3.9105   -9.5409    6.7442 O   0  0  0  0  0  0  0  0  0  0  0  0
    4.7006   -8.4429    7.0760 C   0  0  0  0  0  0  0  0  0  0  0  0
    4.6037   -8.0733    8.3821 C   0  0  0  0  0  0  0  0  0  0  0  0
    4.0319   -6.6688    8.7675 C   0  0  1  0  0  0  0  0  0  0  0  0
    4.9717   -5.9326    9.5307 O   0  0  0  0  0  0  0  0  0  0  0  0
    3.2952   -5.8603    7.5501 C   0  0  2  0  0  0  0  0  0  0  0  0
    3.8772   -4.4170    7.4389 C   0  0  0  0  0  0  0  0  0  0  0  0
    1.9712   -5.5082    8.0078 O   0  0  0  0  0  0  0  0  0  0  0  0
    3.2686   -6.7590    6.2197 C   0  0  2  0  0  0  0  0  0  0  0  0
    4.7351   -7.3173    6.0154 C   0  0  0  0  0  0  0  0  0  0  0  0
    5.9728   -6.4137    6.3147 C   0  0  0  0  0  0  0  0  0  0  0  0
    5.0816   -7.6731    4.5287 C   0  0  0  0  0  0  0  0  0  0  0  0
    0.2404   -3.3417    6.1947 C   0  0  1  0  0  0  0  0  0  0  0  0
    0.6154   -2.6600    7.5396 C   0  0  0  0  0  0  0  0  0  0  0  0
    0.1293   -1.3343    7.5796 O   0  0  0  0  0  0  0  0  0  0  0  0
    1.2174    0.5373    5.4641 H   0  0  0  0  0  0  0  0  0  0  0  0
    1.1157    1.5811    4.0591 H   0  0  0  0  0  0  0  0  0  0  0  0
    2.6560    1.3253    4.8706 H   0  0  0  0  0  0  0  0  0  0  0  0
    2.5894    0.0036    2.7759 H   0  0  0  0  0  0  0  0  0  0  0  0
    0.0964   -0.2538    2.6381 H   0  0  0  0  0  0  0  0  0  0  0  0
    0.9747   -1.7297    2.3218 H   0  0  0  0  0  0  0  0  0  0  0  0
   -0.3866   -0.9698    4.9653 H   0  0  0  0  0  0  0  0  0  0  0  0
   -0.8775   -2.2498    3.8833 H   0  0  0  0  0  0  0  0  0  0  0  0
    3.2082   -2.1967    3.6421 H   0  0  0  0  0  0  0  0  0  0  0  0
    3.7537   -0.9902    4.7845 H   0  0  0  0  0  0  0  0  0  0  0  0
    2.5193   -4.7481    5.1306 H   0  0  0  0  0  0  0  0  0  0  0  0
   -0.4370   -5.1988    5.5837 H   0  0  0  0  0  0  0  0  0  0  0  0
    0.0580   -5.2723    8.0244 H   0  0  0  0  0  0  0  0  0  0  0  0
    1.4719   -8.3694    7.9184 H   0  0  0  0  0  0  0  0  0  0  0  0
    0.3267   -8.8813    6.7790 H   0  0  0  0  0  0  0  0  0  0  0  0
    3.5601   -9.3448    4.9074 H   0  0  0  0  0  0  0  0  0  0  0  0
    2.5676  -11.3736    5.3521 H   0  0  0  0  0  0  0  0  0  0  0  0
    1.1074  -10.5848    5.8304 H   0  0  0  0  0  0  0  0  0  0  0  0
    2.6010  -10.5833    3.2145 H   0  0  0  0  0  0  0  0  0  0  0  0
    0.5330  -11.0041    2.0988 H   0  0  0  0  0  0  0  0  0  0  0  0
   -0.4105  -10.6431    3.5287 H   0  0  0  0  0  0  0  0  0  0  0  0
    0.6222  -12.0675    3.4913 H   0  0  0  0  0  0  0  0  0  0  0  0
   -0.8258   -7.1823    5.0951 H   0  0  0  0  0  0  0  0  0  0  0  0
   -0.5102   -8.8814    4.8632 H   0  0  0  0  0  0  0  0  0  0  0  0
   -0.7343   -7.8546    3.5077 H   0  0  0  0  0  0  0  0  0  0  0  0
    2.4831   -6.1349    3.3633 H   0  0  0  0  0  0  0  0  0  0  0  0
    0.7417   -6.6077    2.1487 H   0  0  0  0  0  0  0  0  0  0  0  0
    4.3512   -8.8354    9.1032 H   0  0  0  0  0  0  0  0  0  0  0  0
    3.2416   -6.9119    9.4784 H   0  0  0  0  0  0  0  0  0  0  0  0
    5.6959   -5.6903    8.9713 H   0  0  0  0  0  0  0  0  0  0  0  0
    4.9356   -4.3385    7.2278 H   0  0  0  0  0  0  0  0  0  0  0  0
    3.7465   -3.8950    8.3858 H   0  0  0  0  0  0  0  0  0  0  0  0
    3.3806   -3.7960    6.7053 H   0  0  0  0  0  0  0  0  0  0  0  0
    2.9151   -7.2574    7.0440 H   0  0  0  0  0  0  0  0  0  0  0  0
    5.9750   -5.5028    5.7118 H   0  0  0  0  0  0  0  0  0  0  0  0
    6.8914   -6.9508    6.0681 H   0  0  0  0  0  0  0  0  0  0  0  0
    6.1182   -6.1354    7.3509 H   0  0  0  0  0  0  0  0  0  0  0  0
    5.7491   -6.9565    4.0465 H   0  0  0  0  0  0  0  0  0  0  0  0
    4.2138   -7.6761    3.8714 H   0  0  0  0  0  0  0  0  0  0  0  0
    5.5863   -8.6395    4.4644 H   0  0  0  0  0  0  0  0  0  0  0  0
   -0.8356   -3.2166    6.0751 H   0  0  0  0  0  0  0  0  0  0  0  0
    0.1413   -3.1592    8.3838 H   0  0  0  0  0  0  0  0  0  0  0  0
    1.6862   -2.6635    7.7421 H   0  0  0  0  0  0  0  0  0  0  0  0
    0.6751   -0.8049    7.0126 H   0  0  0  0  0  0  0  0  0  0  0  0
  1  2  1  0
  1 40  1  0
  1 41  1  0
  1 42  1  0
  2  7  1  0
  2  3  1  0
  2 43  1  6
  3  4  1  0
  3 44  1  0
  3 45  1  0
  4  5  1  0
  4 46  1  0
  4 47  1  0
  5 37  1  0
  5  6  1  1
  5  8  1  0
  6  7  1  0
  7 48  1  0
  7 49  1  0
  8  9  1  0
  9 23  1  0
  9 10  1  0
  9 50  1  1
 10 11  1  0
 10 37  1  0
 10 51  1  6
 11 32  1  0
 11 12  1  0
 11 52  1  1
 12 13  1  0
 14 13  1  1
 13 53  1  0
 13 54  1  0
 14 21  1  0
 14 33  1  0
 14 15  1  0
 15 16  1  0
 15 25  1  0
 15 55  1  6
 16 17  1  0
 16 56  1  0
 16 57  1  0
 17 18  1  0
 17 19  1  0
 17 58  1  6
 18 59  1  0
 18 60  1  0
 18 61  1  0
 19 20  2  0
 19 21  1  0
 21 22  1  1
 21 23  1  0
 22 62  1  0
 22 63  1  0
 22 64  1  0
 23 24  1  0
 23 65  1  6
 24 66  1  0
 25 26  1  0
 26 34  1  0
 26 27  2  0
 27 28  1  0
 27 67  1  0
 28 29  1  0
 28 30  1  0
 28 68  1  1
 29 69  1  0
 30 31  1  6
 30 32  1  0
 30 33  1  0
 31 70  1  0
 31 71  1  0
 31 72  1  0
 33 34  1  0
 33 73  1  6
 34 35  1  0
 34 36  1  0
 35 74  1  0
 35 75  1  0
 35 76  1  0
 36 77  1  0
 36 78  1  0
 36 79  1  0
 37 38  1  0
 37 80  1  6
 38 39  1  0
 38 81  1  0
 38 82  1  0
 39 83  1  0
M  END
>  <i_m_ct_stereo_status>  (6) 
1

>  <s_m_source_file>  (6) 
/var/tmp/pbs.5083858.sched01/tmpenikwtu0/0t3uzvhev.sdf

>  <i_m_source_file_index>  (6) 
2

>  <i_lp_mmshare_version>  (6) 
48012

>  <i_f3d_flags>  (6) 
0

>  <s_epik_input>  (6) 
TzFbQ0gyXVtDQEhdKFtDSDNdKVtDSDJdW0NIMl1bQ0BAXTEyT1tDQEhdM1tDQEhdKFtDQEhdMltDSDJdW09IXSlbQ0BIXTRPW0NIMl1bQ0BAXTU2W0NASF0oW0NIMl1bQ0BASF0oW0NIM10pQyg9TylbQ0BdNShbQ0gzXSlbQ0BIXTNbT0hdKU9DNz1bQ0hdW0NAQEhdKFtPSF0pW0NAQF0oTzQpKFtDSDNdKVtDQEBIXTZDNyhbQ0gzXSlbQ0gzXQ==

>  <s_epik_cmdline>  (6) 
J2VwaWtfcHl0aG9uJywgJy1waHQnLCAnMi4wJywgJy1waCcsICc3LjAnLCAnLXRuJywgJzgnLCAnLW1hJywgJzIwMCcsICctaW1hZScsICc8aW5maWxlLm1hZT4nLCAnLW9tYWUnLCAnPG91dGZpbGUubWFlPic=

>  <r_lp_tautomer_probability>  (6) 
1

>  <r_epik_Ionization_Penalty>  (6) 
9.12615e-06

>  <r_epik_Ionization_Penalty_Charging>  (6) 
0

>  <r_epik_Ionization_Penalty_Neutral>  (6) 
9.12615e-06

>  <r_epik_State_Penalty>  (6) 
-0

>  <r_epik_Charging_Adjusted_Penalty>  (6) 
0

>  <i_epik_Tot_Q>  (6) 
0

>  <i_epik_Tot_abs_Q>  (6) 
0

>  <s_epik_Chemistry_Notes>  (6) 
This compound contains an acetal/aminal-like group ( X-CH(R)-Y where X, Y are N, S, or O) that may be acid/base labile, releasing an aldehyde.

>  <s_lp_Force_Field>  (6) 
OPLS3e

>  <r_lp_Energy>  (6) 
237.152

>  <b_lp_Chiralities_Consistent>  (6) 
1

>  <s_lp_Variant>  (6) 
1:0-1

>  <s_i_glide_gridfile>  (6) 
pfpi4k_grid

>  <i_i_glide_lignum>  (6) 
2

>  <i_i_glide_rotatable_bonds>  (6) 
4

>  <r_i_docking_score>  (6) 
-1.94786

>  <r_i_glide_ligand_efficiency>  (6) 
-0.0499452

>  <r_i_glide_ligand_efficiency_sa>  (6) 
-0.169375

>  <r_i_glide_ligand_efficiency_ln>  (6) 
-0.417677

>  <r_i_glide_gscore>  (6) 
-1.94786

>  <r_i_glide_lipo>  (6) 
-0.0780001

>  <r_i_glide_hbond>  (6) 
0

>  <r_i_glide_metal>  (6) 
-0

>  <r_i_glide_rewards>  (6) 
-0.506599

>  <r_i_glide_evdw>  (6) 
-18.9818

>  <r_i_glide_ecoul>  (6) 
-3.14602

>  <r_i_glide_erotb>  (6) 
0.0688396

>  <r_i_glide_esite>  (6) 
-0.0111114

>  <r_i_glide_emodel>  (6) 
-30.0948

>  <r_i_glide_energy>  (6) 
-22.1278

>  <r_i_glide_einternal>  (6) 
0.464734

>  <r_i_glide_intrahb_reward>  (6) 
-0.5

>  <i_i_glide_confnum>  (6) 
1

>  <i_i_glide_posenum>  (6) 
1

>  <r_i_glide_eff_state_penalty>  (6) 
0

>  <ligand_id>  (6) 
1

>  <original_smiles>  (6) 
CC1CCC2(OC1)OC1C(C3OCC45C(CC(C)C(=O)C4(C)C1O)OC1=CC(O)C(C)(O3)C5C1(C)C)C2CO

>  <smiles>  (6) 
[H]OC([H])([H])C1([H])C2(OC([H])([H])C([H])(C([H])([H])[H])C([H])([H])C2([H])[H])OC2([H])C([H])(O[H])C3(C([H])([H])[H])C(=O)C([H])(C([H])([H])[H])C([H])([H])C4([H])OC5=C([H])C([H])(O[H])C6(C([H])([H])[H])OC([H])(OC([H])([H])C43C6([H])C5(C([H])([H])[H])C([H])([H])[H])C21[H]

$$$$
2:0:0
     RDKit          3D

 60 65  0  0  1  0  0  0  0  0999 V2000
    3.9490   -8.8538    1.7619 C   0  0  0  0  0  0  0  0  0  0  0  0
    3.3113   -7.6658    2.5185 C   0  0  1  0  0  0  0  0  0  0  0  0
    1.7913   -7.7259    2.4186 C   0  0  0  0  0  0  0  0  0  0  0  0
    1.0085   -6.7336    1.7729 C   0  0  0  0  0  0  0  0  0  0  0  0
   -0.3359   -6.8278    1.6912 N   0  0  0  0  0  0  0  0  0  0  0  0
   -0.9025   -7.9344    2.2307 C   0  0  0  0  0  0  0  0  0  0  0  0
   -0.1236   -8.9256    2.8724 C   0  0  0  0  0  0  0  0  0  0  0  0
    1.2160   -8.8158    2.9708 N   0  0  0  0  0  0  0  0  0  0  0  0
    3.8031   -7.5521    3.9865 C   0  0  0  0  0  0  0  0  0  0  0  0
    4.9025   -6.4597    4.0111 C   0  0  1  0  0  0  0  0  0  0  0  0
    6.2852   -7.0568    4.0127 C   0  0  0  0  0  0  0  0  0  0  0  0
    6.9574   -7.2866    2.7910 C   0  0  0  0  0  0  0  0  0  0  0  0
    8.2280   -7.8526    2.8401 C   0  0  0  0  0  0  0  0  0  0  0  0
    8.7965   -8.1466    4.0931 C   0  0  0  0  0  0  0  0  0  0  0  0
    8.0397   -7.8745    5.2518 C   0  0  0  0  0  0  0  0  0  0  0  0
    6.8060   -7.3382    5.2198 N   0  0  0  0  0  0  0  0  0  0  0  0
    4.6276   -5.7294    2.7466 C   0  0  0  0  0  0  0  0  0  0  0  0
    5.2372   -4.5535    2.4653 N   0  0  0  0  0  0  0  0  0  0  0  0
    5.1088   -3.6739    1.2804 C   0  0  2  0  0  0  0  0  0  0  0  0
    4.2017   -4.2804    0.1813 C   0  0  0  0  0  0  0  0  0  0  0  0
    4.0671   -3.3616   -1.0202 C   0  0  1  0  0  0  0  0  0  0  0  0
    3.4400   -2.0480   -0.5382 C   0  0  0  0  0  0  0  0  0  0  0  0
    4.3579   -1.3913    0.5082 C   0  0  2  0  0  0  0  0  0  0  0  0
    5.7440   -1.1442   -0.1164 C   0  0  0  0  0  0  0  0  0  0  0  0
    6.3663   -2.4889   -0.5626 C   0  0  2  0  0  0  0  0  0  0  0  0
    7.6379   -2.2550   -1.1254 O   0  0  0  0  0  0  0  0  0  0  0  0
    5.4585   -3.1489   -1.6242 C   0  0  0  0  0  0  0  0  0  0  0  0
    6.5073   -3.4190    0.6696 C   0  0  0  0  0  0  0  0  0  0  0  0
    4.5063   -2.3245    1.7316 C   0  0  0  0  0  0  0  0  0  0  0  0
    3.8173   -6.4261    1.9575 N   0  0  0  0  0  0  0  0  0  0  0  0
    3.5858   -9.8154    2.1287 H   0  0  0  0  0  0  0  0  0  0  0  0
    5.0267   -8.8796    1.8816 H   0  0  0  0  0  0  0  0  0  0  0  0
    3.7448   -8.8144    0.6936 H   0  0  0  0  0  0  0  0  0  0  0  0
    1.4249   -5.8507    1.3266 H   0  0  0  0  0  0  0  0  0  0  0  0
   -1.9763   -8.0459    2.1371 H   0  0  0  0  0  0  0  0  0  0  0  0
   -0.5653   -9.8163    3.2957 H   0  0  0  0  0  0  0  0  0  0  0  0
    2.9718   -7.2191    4.6131 H   0  0  0  0  0  0  0  0  0  0  0  0
    4.1374   -8.5194    4.3800 H   0  0  0  0  0  0  0  0  0  0  0  0
    4.7879   -5.7772    4.8588 H   0  0  0  0  0  0  0  0  0  0  0  0
    6.5093   -7.0694    1.8319 H   0  0  0  0  0  0  0  0  0  0  0  0
    8.7555   -8.0667    1.9231 H   0  0  0  0  0  0  0  0  0  0  0  0
    9.7940   -8.5552    4.1711 H   0  0  0  0  0  0  0  0  0  0  0  0
    8.4221   -8.0783    6.2397 H   0  0  0  0  0  0  0  0  0  0  0  0
    5.8844   -4.2037    3.1593 H   0  0  0  0  0  0  0  0  0  0  0  0
    4.6073   -5.2281   -0.1771 H   0  0  0  0  0  0  0  0  0  0  0  0
    3.1895   -4.4127    0.5558 H   0  0  0  0  0  0  0  0  0  0  0  0
    3.4096   -3.8387   -1.7486 H   0  0  0  0  0  0  0  0  0  0  0  0
    3.2578   -1.3840   -1.3831 H   0  0  0  0  0  0  0  0  0  0  0  0
    2.4702   -2.2560   -0.0839 H   0  0  0  0  0  0  0  0  0  0  0  0
    3.9152   -0.4440    0.8231 H   0  0  0  0  0  0  0  0  0  0  0  0
    5.6349   -0.4737   -0.9687 H   0  0  0  0  0  0  0  0  0  0  0  0
    6.3901   -0.6388    0.6037 H   0  0  0  0  0  0  0  0  0  0  0  0
    8.0076   -3.0707   -1.4118 H   0  0  0  0  0  0  0  0  0  0  0  0
    5.8641   -4.1170   -1.9240 H   0  0  0  0  0  0  0  0  0  0  0  0
    5.3799   -2.5395   -2.5256 H   0  0  0  0  0  0  0  0  0  0  0  0
    7.1708   -2.9572    1.4032 H   0  0  0  0  0  0  0  0  0  0  0  0
    6.9781   -4.3620    0.3838 H   0  0  0  0  0  0  0  0  0  0  0  0
    3.5357   -2.4838    2.2035 H   0  0  0  0  0  0  0  0  0  0  0  0
    5.1368   -1.8483    2.4877 H   0  0  0  0  0  0  0  0  0  0  0  0
    3.5363   -6.1398    1.0298 H   0  0  0  0  0  0  0  0  0  0  0  0
  2  1  1  6
  1 31  1  0
  1 32  1  0
  1 33  1  0
  2 30  1  0
  2  3  1  0
  2  9  1  0
  3  8  1  0
  3  4  2  0
  4  5  1  0
  4 34  1  0
  5  6  2  0
  6  7  1  0
  6 35  1  0
  7  8  2  0
  7 36  1  0
  9 10  1  0
  9 37  1  0
  9 38  1  0
 10 11  1  0
 10 17  1  0
 10 39  1  1
 11 16  1  0
 11 12  2  0
 12 13  1  0
 12 40  1  0
 13 14  2  0
 13 41  1  0
 14 15  1  0
 14 42  1  0
 15 16  2  0
 15 43  1  0
 17 18  1  0
 17 30  2  0
 19 18  1  1
 18 44  1  0
 19 28  1  0
 19 29  1  0
 19 20  1  0
 20 21  1  0
 20 45  1  0
 20 46  1  0
 21 27  1  0
 21 22  1  0
 21 47  1  6
 22 23  1  0
 22 48  1  0
 22 49  1  0
 23 24  1  0
 23 29  1  0
 23 50  1  1
 24 25  1  0
 24 51  1  0
 24 52  1  0
 25 26  1  6
 25 27  1  0
 25 28  1  0
 26 53  1  0
 27 54  1  0
 27 55  1  0
 28 56  1  0
 28 57  1  0
 29 58  1  0
 29 59  1  0
 30 60  1  0
M  CHG  1  30   1
M  END
>  <i_m_ct_stereo_status>  (7) 
1

>  <s_m_source_file>  (7) 
/var/tmp/pbs.5083858.sched01/tmpenikwtu0/0t3uzvhev.sdf

>  <i_m_source_file_index>  (7) 
3

>  <i_lp_mmshare_version>  (7) 
48012

>  <i_f3d_flags>  (7) 
0

>  <s_epik_input>  (7) 
bjFbY0hdW2NIXW5bY0hdYzFbQ0BdMihbQ0gzXSlbQ0gyXVtDQEBIXShjM1tjSF1bY0hdW2NIXVtjSF1uMylDKD1OMilbTkhdW0NAXTQ1W0NIMl1bQ0BIXTZbQ0gyXVtDQEBIXShbQ0gyXTUpW0NIMl1bQ0BdKFtPSF0pKFtDSDJdNilbQ0gyXTQ=

>  <s_epik_cmdline>  (7) 
J2VwaWtfcHl0aG9uJywgJy1waHQnLCAnMi4wJywgJy1waCcsICc3LjAnLCAnLXRuJywgJzgnLCAnLW1hJywgJzIwMCcsICctaW1hZScsICc8aW5maWxlLm1hZT4nLCAnLW9tYWUnLCAnPG91dGZpbGUubWFlPic=

>  <r_lp_tautomer_probability>  (7) 
1

>  <r_epik_Ionization_Penalty>  (7) 
0.0101256

>  <r_epik_Ionization_Penalty_Charging>  (7) 
6.46571e-05

>  <r_epik_Ionization_Penalty_Neutral>  (7) 
0.010061

>  <r_epik_State_Penalty>  (7) 
0.00767355

>  <r_epik_Charging_Adjusted_Penalty>  (7) 
0.00773821

>  <i_epik_Tot_Q>  (7) 
1

>  <i_epik_Tot_abs_Q>  (7) 
1

>  <s_epik_Chemistry_Notes>  (7) 
This compound has an imine and may undergo hydrolysis.

>  <s_lp_Force_Field>  (7) 
OPLS3e

>  <r_lp_Energy>  (7) 
15.7613

>  <b_lp_Chiralities_Consistent>  (7) 
1

>  <s_lp_Variant>  (7) 
2:0-1

>  <s_i_glide_gridfile>  (7) 
pfpi4k_grid

>  <i_i_glide_lignum>  (7) 
3

>  <i_i_glide_rotatable_bonds>  (7) 
5

>  <r_i_docking_score>  (7) 
-3.33583

>  <r_i_glide_ligand_efficiency>  (7) 
-0.111194

>  <r_i_glide_ligand_efficiency_sa>  (7) 
-0.345507

>  <r_i_glide_ligand_efficiency_ln>  (7) 
-0.757937

>  <r_i_glide_gscore>  (7) 
-3.33583

>  <r_i_glide_lipo>  (7) 
-0.24876

>  <r_i_glide_hbond>  (7) 
-0.307154

>  <r_i_glide_metal>  (7) 
-0

>  <r_i_glide_rewards>  (7) 
-0.650946

>  <r_i_glide_evdw>  (7) 
-29.2972

>  <r_i_glide_ecoul>  (7) 
-7.62853

>  <r_i_glide_erotb>  (7) 
0.480167

>  <r_i_glide_esite>  (7) 
0

>  <r_i_glide_emodel>  (7) 
-42.1125

>  <r_i_glide_energy>  (7) 
-36.9257

>  <r_i_glide_einternal>  (7) 
5.38144

>  <r_i_glide_intrahb_reward>  (7) 
-0

>  <i_i_glide_confnum>  (7) 
3

>  <i_i_glide_posenum>  (7) 
11

>  <r_i_glide_eff_state_penalty>  (7) 
0

>  <ligand_id>  (7) 
2

>  <original_smiles>  (7) 
CC1(c2cnccn2)CC(c2ccccn2)C(NC23CC4CC(CC(O)(C4)C2)C3)=N1

>  <smiles>  (7) 
[H]OC12C([H])([H])C3([H])C([H])([H])C([H])(C1([H])[H])C([H])([H])C(N([H])C1=[N+]([H])C(c4nc([H])c([H])nc4[H])(C([H])([H])[H])C([H])([H])C1([H])c1nc([H])c([H])c([H])c1[H])(C3([H])[H])C2([H])[H]

$$$$
2:0:1
     RDKit          3D

 60 65  0  0  1  0  0  0  0  0999 V2000
    3.6461   -9.0383    1.5915 C   0  0  0  0  0  0  0  0  0  0  0  0
    3.0402   -7.9522    2.5104 C   0  0  1  0  0  0  0  0  0  0  0  0
    1.5208   -8.0291    2.5088 C   0  0  0  0  0  0  0  0  0  0  0  0
    0.6929   -6.9580    2.0887 C   0  0  0  0  0  0  0  0  0  0  0  0
   -0.6490   -7.0510    2.0868 N   0  0  0  0  0  0  0  0  0  0  0  0
   -1.1702   -8.2347    2.4839 C   0  0  0  0  0  0  0  0  0  0  0  0
   -0.3494   -9.3047    2.9091 C   0  0  0  0  0  0  0  0  0  0  0  0
    0.9926   -9.1973    2.9314 N   0  0  0  0  0  0  0  0  0  0  0  0
    3.6234   -8.0379    3.9389 C   0  0  0  0  0  0  0  0  0  0  0  0
    4.7403   -6.9646    4.0424 C   0  0  1  0  0  0  0  0  0  0  0  0
    6.1077   -7.5704    3.8809 C   0  0  0  0  0  0  0  0  0  0  0  0
    6.7921   -7.4467    2.6539 C   0  0  0  0  0  0  0  0  0  0  0  0
    8.0698   -7.9919    2.5557 C   0  0  0  0  0  0  0  0  0  0  0  0
    8.6055   -8.6584    3.6777 C   0  0  0  0  0  0  0  0  0  0  0  0
    7.8266   -8.7555    4.8475 C   0  0  0  0  0  0  0  0  0  0  0  0
    6.5998   -8.2050    4.9576 N   0  0  0  0  0  0  0  0  0  0  0  0
    4.3852   -6.0697    2.9218 C   0  0  0  0  0  0  0  0  0  0  0  0
    4.9907   -4.8684    2.7638 N   0  0  0  0  0  0  0  0  0  0  0  0
    4.7235   -3.8493    1.7462 C   0  0  2  0  0  0  0  0  0  0  0  0
    5.8132   -2.7511    1.8409 C   0  0  0  0  0  0  0  0  0  0  0  0
    5.5453   -1.6339    0.8109 C   0  0  1  0  0  0  0  0  0  0  0  0
    5.5593   -2.2410   -0.6096 C   0  0  0  0  0  0  0  0  0  0  0  0
    4.4661   -3.3178   -0.7135 C   0  0  2  0  0  0  0  0  0  0  0  0
    3.0866   -2.6975   -0.4158 C   0  0  0  0  0  0  0  0  0  0  0  0
    3.0877   -2.0914    1.0059 C   0  0  2  0  0  0  0  0  0  0  0  0
    1.8309   -1.5307    1.2905 O   0  0  0  0  0  0  0  0  0  0  0  0
    4.1742   -1.0011    1.1148 C   0  0  0  0  0  0  0  0  0  0  0  0
    3.3543   -3.2023    2.0379 C   0  0  0  0  0  0  0  0  0  0  0  0
    4.7519   -4.4296    0.3034 C   0  0  0  0  0  0  0  0  0  0  0  0
    3.5085   -6.6327    2.0903 N   0  0  0  0  0  0  0  0  0  0  0  0
    3.3036  -10.0326    1.8769 H   0  0  0  0  0  0  0  0  0  0  0  0
    4.7327   -9.0659    1.6580 H   0  0  0  0  0  0  0  0  0  0  0  0
    3.3796   -8.8929    0.5467 H   0  0  0  0  0  0  0  0  0  0  0  0
    1.0862   -6.0084    1.7689 H   0  0  0  0  0  0  0  0  0  0  0  0
   -2.2459   -8.3324    2.4581 H   0  0  0  0  0  0  0  0  0  0  0  0
   -0.7640  -10.2532    3.2201 H   0  0  0  0  0  0  0  0  0  0  0  0
    2.8475   -7.7978    4.6718 H   0  0  0  0  0  0  0  0  0  0  0  0
    3.9719   -9.0452    4.1790 H   0  0  0  0  0  0  0  0  0  0  0  0
    4.6840   -6.4111    4.9813 H   0  0  0  0  0  0  0  0  0  0  0  0
    6.3534   -6.9651    1.7942 H   0  0  0  0  0  0  0  0  0  0  0  0
    8.6135   -7.9103    1.6233 H   0  0  0  0  0  0  0  0  0  0  0  0
    9.5989   -9.0865    3.6426 H   0  0  0  0  0  0  0  0  0  0  0  0
    8.1877   -9.2657    5.7274 H   0  0  0  0  0  0  0  0  0  0  0  0
    5.7260   -4.6381    3.4164 H   0  0  0  0  0  0  0  0  0  0  0  0
    5.8472   -2.3219    2.8451 H   0  0  0  0  0  0  0  0  0  0  0  0
    6.8031   -3.1804    1.6618 H   0  0  0  0  0  0  0  0  0  0  0  0
    6.3212   -0.8719    0.8864 H   0  0  0  0  0  0  0  0  0  0  0  0
    5.3960   -1.4716   -1.3645 H   0  0  0  0  0  0  0  0  0  0  0  0
    6.5319   -2.6943   -0.8153 H   0  0  0  0  0  0  0  0  0  0  0  0
    4.4559   -3.7515   -1.7138 H   0  0  0  0  0  0  0  0  0  0  0  0
    2.8679   -1.9309   -1.1576 H   0  0  0  0  0  0  0  0  0  0  0  0
    2.2993   -3.4471   -0.5084 H   0  0  0  0  0  0  0  0  0  0  0  0
    1.4669   -1.1868    0.4420 H   0  0  0  0  0  0  0  0  0  0  0  0
    4.1752   -0.5804    2.1212 H   0  0  0  0  0  0  0  0  0  0  0  0
    3.9704   -0.1793    0.4296 H   0  0  0  0  0  0  0  0  0  0  0  0
    2.5644   -3.9514    1.9967 H   0  0  0  0  0  0  0  0  0  0  0  0
    3.3326   -2.7931    3.0507 H   0  0  0  0  0  0  0  0  0  0  0  0
    5.7099   -4.9157    0.1033 H   0  0  0  0  0  0  0  0  0  0  0  0
    3.9807   -5.1685    0.1187 H   0  0  0  0  0  0  0  0  0  0  0  0
    3.1811   -6.2253    1.2263 H   0  0  0  0  0  0  0  0  0  0  0  0
  2  1  1  6
  1 31  1  0
  1 32  1  0
  1 33  1  0
  2 30  1  0
  2  3  1  0
  2  9  1  0
  3  8  1  0
  3  4  2  0
  4  5  1  0
  4 34  1  0
  5  6  2  0
  6  7  1  0
  6 35  1  0
  7  8  2  0
  7 36  1  0
  9 10  1  0
  9 37  1  0
  9 38  1  0
 10 11  1  0
 10 17  1  0
 10 39  1  1
 11 16  1  0
 11 12  2  0
 12 13  1  0
 12 40  1  0
 13 14  2  0
 13 41  1  0
 14 15  1  0
 14 42  1  0
 15 16  2  0
 15 43  1  0
 17 18  1  0
 17 30  2  0
 19 18  1  1
 18 44  1  0
 19 28  1  0
 19 29  1  0
 19 20  1  0
 20 21  1  0
 20 45  1  0
 20 46  1  0
 21 27  1  0
 21 22  1  0
 21 47  1  6
 22 23  1  0
 22 48  1  0
 22 49  1  0
 23 24  1  0
 23 29  1  0
 23 50  1  6
 24 25  1  0
 24 51  1  0
 24 52  1  0
 25 26  1  1
 25 27  1  0
 25 28  1  0
 26 53  1  0
 27 54  1  0
 27 55  1  0
 28 56  1  0
 28 57  1  0
 29 58  1  0
 29 59  1  0
 30 60  1  0
M  CHG  1  30   1
M  END
>  <i_m_ct_stereo_status>  (8) 
1

>  <s_m_source_file>  (8) 
/var/tmp/pbs.5083858.sched01/tmpenikwtu0/0t3uzvhev.sdf

>  <i_m_source_file_index>  (8) 
3

>  <i_lp_mmshare_version>  (8) 
48012

>  <i_f3d_flags>  (8) 
0

>  <s_epik_input>  (8) 
bjFbY0hdW2NIXW5bY0hdYzFbQ0BdMihbQ0gzXSlbQ0gyXVtDQEBIXShjM1tjSF1bY0hdW2NIXVtjSF1uMylDKD1OMilbTkhdW0NAXTQ1W0NIMl1bQ0BIXTZbQ0gyXVtDQEBIXShbQ0gyXTUpW0NIMl1bQ0BdKFtPSF0pKFtDSDJdNilbQ0gyXTQ=

>  <s_epik_cmdline>  (8) 
J2VwaWtfcHl0aG9uJywgJy1waHQnLCAnMi4wJywgJy1waCcsICc3LjAnLCAnLXRuJywgJzgnLCAnLW1hJywgJzIwMCcsICctaW1hZScsICc8aW5maWxlLm1hZT4nLCAnLW9tYWUnLCAnPG91dGZpbGUubWFlPic=

>  <r_lp_tautomer_probability>  (8) 
1

>  <r_epik_Ionization_Penalty>  (8) 
0.0101256

>  <r_epik_Ionization_Penalty_Charging>  (8) 
6.46571e-05

>  <r_epik_Ionization_Penalty_Neutral>  (8) 
0.010061

>  <r_epik_State_Penalty>  (8) 
0.00767355

>  <r_epik_Charging_Adjusted_Penalty>  (8) 
0.00773821

>  <i_epik_Tot_Q>  (8) 
1

>  <i_epik_Tot_abs_Q>  (8) 
1

>  <s_epik_Chemistry_Notes>  (8) 
This compound has an imine and may undergo hydrolysis.

>  <s_lp_Force_Field>  (8) 
OPLS3e

>  <r_lp_Energy>  (8) 
15.7613

>  <b_lp_Chiralities_Consistent>  (8) 
1

>  <s_lp_Variant>  (8) 
2:0-1

>  <s_i_glide_gridfile>  (8) 
pfpi4k_grid

>  <i_i_glide_lignum>  (8) 
3

>  <i_i_glide_rotatable_bonds>  (8) 
5

>  <r_i_docking_score>  (8) 
-3.17665

>  <r_i_glide_ligand_efficiency>  (8) 
-0.105888

>  <r_i_glide_ligand_efficiency_sa>  (8) 
-0.329019

>  <r_i_glide_ligand_efficiency_ln>  (8) 
-0.721769

>  <r_i_glide_gscore>  (8) 
-3.17665

>  <r_i_glide_lipo>  (8) 
-0.305518

>  <r_i_glide_hbond>  (8) 
-0.27567

>  <r_i_glide_metal>  (8) 
-0

>  <r_i_glide_rewards>  (8) 
-0.650946

>  <r_i_glide_evdw>  (8) 
-24.1104

>  <r_i_glide_ecoul>  (8) 
-8.12771

>  <r_i_glide_erotb>  (8) 
0.480167

>  <r_i_glide_esite>  (8) 
0

>  <r_i_glide_emodel>  (8) 
-38.9379

>  <r_i_glide_energy>  (8) 
-32.2382

>  <r_i_glide_einternal>  (8) 
1.70146

>  <r_i_glide_intrahb_reward>  (8) 
-0

>  <i_i_glide_confnum>  (8) 
3

>  <i_i_glide_posenum>  (8) 
3

>  <r_i_glide_eff_state_penalty>  (8) 
0

>  <ligand_id>  (8) 
2

>  <original_smiles>  (8) 
CC1(c2cnccn2)CC(c2ccccn2)C(NC23CC4CC(CC(O)(C4)C2)C3)=N1

>  <smiles>  (8) 
[H]OC12C([H])([H])C3([H])C([H])([H])C([H])(C1([H])[H])C([H])([H])C(N([H])C1=[N+]([H])C(c4nc([H])c([H])nc4[H])(C([H])([H])[H])C([H])([H])C1([H])c1nc([H])c([H])c([H])c1[H])(C3([H])[H])C2([H])[H]

$$$$
2:0:2
     RDKit          3D

 60 65  0  0  1  0  0  0  0  0999 V2000
    4.8404   -3.1219    3.8565 C   0  0  0  0  0  0  0  0  0  0  0  0
    3.9583   -3.3228    2.6060 C   0  0  1  0  0  0  0  0  0  0  0  0
    3.0960   -2.0843    2.3971 C   0  0  0  0  0  0  0  0  0  0  0  0
    1.7439   -2.0305    2.8001 C   0  0  0  0  0  0  0  0  0  0  0  0
    1.0025   -0.9162    2.6518 N   0  0  0  0  0  0  0  0  0  0  0  0
    1.6038    0.1505    2.0791 C   0  0  0  0  0  0  0  0  0  0  0  0
    2.9596    0.1073    1.6910 C   0  0  0  0  0  0  0  0  0  0  0  0
    3.7153   -0.9981    1.8732 N   0  0  0  0  0  0  0  0  0  0  0  0
    4.8098   -3.6531    1.3556 C   0  0  0  0  0  0  0  0  0  0  0  0
    4.7328   -5.1774    1.1600 C   0  0  1  0  0  0  0  0  0  0  0  0
    5.9654   -5.8613    1.6968 C   0  0  0  0  0  0  0  0  0  0  0  0
    5.9686   -6.4260    2.9879 C   0  0  0  0  0  0  0  0  0  0  0  0
    7.1303   -7.0749    3.4352 C   0  0  0  0  0  0  0  0  0  0  0  0
    8.2301   -7.1271    2.5673 C   0  0  0  0  0  0  0  0  0  0  0  0
    8.1373   -6.5137    1.3004 C   0  0  0  0  0  0  0  0  0  0  0  0
    7.0282   -5.8868    0.8682 N   0  0  0  0  0  0  0  0  0  0  0  0
    3.5263   -5.5253    1.9463 C   0  0  0  0  0  0  0  0  0  0  0  0
    2.9862   -6.7589    1.8813 N   0  0  0  0  0  0  0  0  0  0  0  0
    1.8688   -7.3009    2.6597 C   0  0  2  0  0  0  0  0  0  0  0  0
    2.1083   -7.1242    4.1853 C   0  0  0  0  0  0  0  0  0  0  0  0
    0.9215   -7.7081    4.9689 C   0  0  1  0  0  0  0  0  0  0  0  0
   -0.3723   -6.9741    4.5489 C   0  0  0  0  0  0  0  0  0  0  0  0
   -0.6231   -7.1908    3.0420 C   0  0  2  0  0  0  0  0  0  0  0  0
   -0.7508   -8.6985    2.7459 C   0  0  0  0  0  0  0  0  0  0  0  0
    0.5631   -9.4022    3.1536 C   0  0  2  0  0  0  0  0  0  0  0  0
    0.4826  -10.7781    2.8748 O   0  0  0  0  0  0  0  0  0  0  0  0
    0.8117   -9.2138    4.6640 C   0  0  0  0  0  0  0  0  0  0  0  0
    1.7439   -8.8106    2.3547 C   0  0  0  0  0  0  0  0  0  0  0  0
    0.5570   -6.6036    2.2404 C   0  0  0  0  0  0  0  0  0  0  0  0
    3.1422   -4.5274    2.7492 N   0  0  0  0  0  0  0  0  0  0  0  0
    5.4267   -2.2054    3.7801 H   0  0  0  0  0  0  0  0  0  0  0  0
    5.5515   -3.9310    3.9829 H   0  0  0  0  0  0  0  0  0  0  0  0
    4.2528   -3.0546    4.7693 H   0  0  0  0  0  0  0  0  0  0  0  0
    1.2333   -2.8720    3.2411 H   0  0  0  0  0  0  0  0  0  0  0  0
    1.0028    1.0407    1.9413 H   0  0  0  0  0  0  0  0  0  0  0  0
    3.4478    0.9591    1.2444 H   0  0  0  0  0  0  0  0  0  0  0  0
    4.3814   -3.1793    0.4736 H   0  0  0  0  0  0  0  0  0  0  0  0
    5.8322   -3.2852    1.4509 H   0  0  0  0  0  0  0  0  0  0  0  0
    4.5739   -5.4403    0.1124 H   0  0  0  0  0  0  0  0  0  0  0  0
    5.1118   -6.3566    3.6392 H   0  0  0  0  0  0  0  0  0  0  0  0
    7.1754   -7.5206    4.4184 H   0  0  0  0  0  0  0  0  0  0  0  0
    9.1432   -7.6312    2.8536 H   0  0  0  0  0  0  0  0  0  0  0  0
    8.9603   -6.5296    0.6013 H   0  0  0  0  0  0  0  0  0  0  0  0
    3.4073   -7.4128    1.2313 H   0  0  0  0  0  0  0  0  0  0  0  0
    3.0390   -7.6096    4.4872 H   0  0  0  0  0  0  0  0  0  0  0  0
    2.1954   -6.0818    4.4821 H   0  0  0  0  0  0  0  0  0  0  0  0
    1.0923   -7.5640    6.0366 H   0  0  0  0  0  0  0  0  0  0  0  0
   -1.2204   -7.3389    5.1249 H   0  0  0  0  0  0  0  0  0  0  0  0
   -0.2848   -5.9079    4.7666 H   0  0  0  0  0  0  0  0  0  0  0  0
   -1.5490   -6.6933    2.7536 H   0  0  0  0  0  0  0  0  0  0  0  0
   -1.5959   -9.1183    3.2923 H   0  0  0  0  0  0  0  0  0  0  0  0
   -0.9585   -8.8495    1.6855 H   0  0  0  0  0  0  0  0  0  0  0  0
    0.2923  -10.8864    1.9538 H   0  0  0  0  0  0  0  0  0  0  0  0
    1.7352   -9.7167    4.9559 H   0  0  0  0  0  0  0  0  0  0  0  0
    0.0114   -9.6656    5.2514 H   0  0  0  0  0  0  0  0  0  0  0  0
    1.5947   -8.9775    1.2852 H   0  0  0  0  0  0  0  0  0  0  0  0
    2.6653   -9.3365    2.6162 H   0  0  0  0  0  0  0  0  0  0  0  0
    0.6254   -5.5309    2.4221 H   0  0  0  0  0  0  0  0  0  0  0  0
    0.3881   -6.7298    1.1690 H   0  0  0  0  0  0  0  0  0  0  0  0
    2.3902   -4.5720    3.4149 H   0  0  0  0  0  0  0  0  0  0  0  0
  2  1  1  1
  1 31  1  0
  1 32  1  0
  1 33  1  0
  2 30  1  0
  2  3  1  0
  2  9  1  0
  3  8  1  0
  3  4  2  0
  4  5  1  0
  4 34  1  0
  5  6  2  0
  6  7  1  0
  6 35  1  0
  7  8  2  0
  7 36  1  0
  9 10  1  0
  9 37  1  0
  9 38  1  0
 10 11  1  0
 10 17  1  0
 10 39  1  6
 11 16  1  0
 11 12  2  0
 12 13  1  0
 12 40  1  0
 13 14  2  0
 13 41  1  0
 14 15  1  0
 14 42  1  0
 15 16  2  0
 15 43  1  0
 17 18  1  0
 17 30  2  0
 19 18  1  6
 18 44  1  0
 19 28  1  0
 19 29  1  0
 19 20  1  0
 20 21  1  0
 20 45  1  0
 20 46  1  0
 21 27  1  0
 21 22  1  0
 21 47  1  1
 22 23  1  0
 22 48  1  0
 22 49  1  0
 23 24  1  0
 23 29  1  0
 23 50  1  6
 24 25  1  0
 24 51  1  0
 24 52  1  0
 25 26  1  1
 25 27  1  0
 25 28  1  0
 26 53  1  0
 27 54  1  0
 27 55  1  0
 28 56  1  0
 28 57  1  0
 29 58  1  0
 29 59  1  0
 30 60  1  0
M  CHG  1  30   1
M  END
>  <i_m_ct_stereo_status>  (9) 
1

>  <s_m_source_file>  (9) 
/var/tmp/pbs.5083858.sched01/tmpenikwtu0/0t3uzvhev.sdf

>  <i_m_source_file_index>  (9) 
3

>  <i_lp_mmshare_version>  (9) 
48012

>  <i_f3d_flags>  (9) 
0

>  <s_epik_input>  (9) 
bjFbY0hdW2NIXW5bY0hdYzFbQ0BdMihbQ0gzXSlbQ0gyXVtDQEBIXShjM1tjSF1bY0hdW2NIXVtjSF1uMylDKD1OMilbTkhdW0NAXTQ1W0NIMl1bQ0BIXTZbQ0gyXVtDQEBIXShbQ0gyXTUpW0NIMl1bQ0BdKFtPSF0pKFtDSDJdNilbQ0gyXTQ=

>  <s_epik_cmdline>  (9) 
J2VwaWtfcHl0aG9uJywgJy1waHQnLCAnMi4wJywgJy1waCcsICc3LjAnLCAnLXRuJywgJzgnLCAnLW1hJywgJzIwMCcsICctaW1hZScsICc8aW5maWxlLm1hZT4nLCAnLW9tYWUnLCAnPG91dGZpbGUubWFlPic=

>  <r_lp_tautomer_probability>  (9) 
1

>  <r_epik_Ionization_Penalty>  (9) 
0.0101256

>  <r_epik_Ionization_Penalty_Charging>  (9) 
6.46571e-05

>  <r_epik_Ionization_Penalty_Neutral>  (9) 
0.010061

>  <r_epik_State_Penalty>  (9) 
0.00767355

>  <r_epik_Charging_Adjusted_Penalty>  (9) 
0.00773821

>  <i_epik_Tot_Q>  (9) 
1

>  <i_epik_Tot_abs_Q>  (9) 
1

>  <s_epik_Chemistry_Notes>  (9) 
This compound has an imine and may undergo hydrolysis.

>  <s_lp_Force_Field>  (9) 
OPLS3e

>  <r_lp_Energy>  (9) 
15.7613

>  <b_lp_Chiralities_Consistent>  (9) 
1

>  <s_lp_Variant>  (9) 
2:0-1

>  <s_i_glide_gridfile>  (9) 
pfpi4k_grid

>  <i_i_glide_lignum>  (9) 
3

>  <i_i_glide_rotatable_bonds>  (9) 
5

>  <r_i_docking_score>  (9) 
-2.29234

>  <r_i_glide_ligand_efficiency>  (9) 
-0.0764114

>  <r_i_glide_ligand_efficiency_sa>  (9) 
-0.237428

>  <r_i_glide_ligand_efficiency_ln>  (9) 
-0.520845

>  <r_i_glide_gscore>  (9) 
-2.29234

>  <r_i_glide_lipo>  (9) 
-0.181457

>  <r_i_glide_hbond>  (9) 
0

>  <r_i_glide_metal>  (9) 
-0

>  <r_i_glide_rewards>  (9) 
-0.662784

>  <r_i_glide_evdw>  (9) 
-30.8535

>  <r_i_glide_ecoul>  (9) 
-2.57062

>  <r_i_glide_erotb>  (9) 
0.480167

>  <r_i_glide_esite>  (9) 
0

>  <r_i_glide_emodel>  (9) 
-38.5255

>  <r_i_glide_energy>  (9) 
-33.4241

>  <r_i_glide_einternal>  (9) 
0.912027

>  <r_i_glide_intrahb_reward>  (9) 
-0

>  <i_i_glide_confnum>  (9) 
4

>  <i_i_glide_posenum>  (9) 
33

>  <r_i_glide_eff_state_penalty>  (9) 
0

>  <ligand_id>  (9) 
2

>  <original_smiles>  (9) 
CC1(c2cnccn2)CC(c2ccccn2)C(NC23CC4CC(CC(O)(C4)C2)C3)=N1

>  <smiles>  (9) 
[H]OC12C([H])([H])C3([H])C([H])([H])C([H])(C1([H])[H])C([H])([H])C(N([H])C1=[N+]([H])C(c4nc([H])c([H])nc4[H])(C([H])([H])[H])C([H])([H])C1([H])c1nc([H])c([H])c([H])c1[H])(C3([H])[H])C2([H])[H]

$$$$
2:1:0
     RDKit          3D

 61 66  0  0  1  0  0  0  0  0999 V2000
    6.7726   -6.9238    2.5910 C   0  0  0  0  0  0  0  0  0  0  0  0
    5.4415   -7.2710    1.8398 C   0  0  1  0  0  0  0  0  0  0  0  0
    5.0021   -6.0374    1.0029 C   0  0  0  0  0  0  0  0  0  0  0  0
    5.9895   -5.1703    0.4326 C   0  0  0  0  0  0  0  0  0  0  0  0
    5.6951   -4.0692   -0.2758 N   0  0  0  0  0  0  0  0  0  0  0  0
    4.3818   -3.8428   -0.4172 C   0  0  0  0  0  0  0  0  0  0  0  0
    3.3780   -4.6713    0.1217 C   0  0  0  0  0  0  0  0  0  0  0  0
    3.6659   -5.7744    0.8411 N   0  0  0  0  0  0  0  0  0  0  0  0
    5.4801   -8.5389    0.9671 C   0  0  0  0  0  0  0  0  0  0  0  0
    4.8097   -9.6500    1.7594 C   0  0  1  0  0  0  0  0  0  0  0  0
    5.8111  -10.5473    2.4924 C   0  0  0  0  0  0  0  0  0  0  0  0
    6.6388  -10.1299    3.5309 C   0  0  0  0  0  0  0  0  0  0  0  0
    7.6546  -10.9766    4.0158 C   0  0  0  0  0  0  0  0  0  0  0  0
    7.6440  -12.3334    3.5646 C   0  0  0  0  0  0  0  0  0  0  0  0
    6.7082  -12.7440    2.6028 C   0  0  0  0  0  0  0  0  0  0  0  0
    5.8489  -11.8353    2.0450 N   0  0  0  0  0  0  0  0  0  0  0  0
    4.0209   -8.9073    2.7503 C   0  0  0  0  0  0  0  0  0  0  0  0
    3.0609   -9.5070    3.4995 N   0  0  0  0  0  0  0  0  0  0  0  0
    2.1897   -8.9504    4.5488 C   0  0  2  0  0  0  0  0  0  0  0  0
    2.4296   -9.7077    5.8726 C   0  0  0  0  0  0  0  0  0  0  0  0
    1.5203   -9.1150    6.9679 C   0  0  1  0  0  0  0  0  0  0  0  0
    1.8550   -7.6215    7.1717 C   0  0  0  0  0  0  0  0  0  0  0  0
    1.5881   -6.8587    5.8630 C   0  0  2  0  0  0  0  0  0  0  0  0
    0.1245   -7.0118    5.4169 C   0  0  0  0  0  0  0  0  0  0  0  0
   -0.1705   -8.5150    5.2172 C   0  0  2  0  0  0  0  0  0  0  0  0
   -1.4931   -8.6407    4.7803 O   0  0  0  0  0  0  0  0  0  0  0  0
    0.0479   -9.2826    6.5336 C   0  0  0  0  0  0  0  0  0  0  0  0
    0.7190   -9.1072    4.1180 C   0  0  0  0  0  0  0  0  0  0  0  0
    2.4699   -7.4538    4.7836 C   0  0  0  0  0  0  0  0  0  0  0  0
    4.3874   -7.6314    2.7838 N   0  0  0  0  0  0  0  0  0  0  0  0
    7.5708   -6.7262    1.8509 H   0  0  0  0  0  0  0  0  0  0  0  0
    7.2792   -7.7170    3.0603 H   0  0  0  0  0  0  0  0  0  0  0  0
    6.6002   -6.0820    3.2984 H   0  0  0  0  0  0  0  0  0  0  0  0
    7.0474   -5.3491    0.5231 H   0  0  0  0  0  0  0  0  0  0  0  0
    4.1640   -2.9749   -0.9887 H   0  0  0  0  0  0  0  0  0  0  0  0
    2.3429   -4.4501   -0.0220 H   0  0  0  0  0  0  0  0  0  0  0  0
    4.9326   -8.3925    0.0503 H   0  0  0  0  0  0  0  0  0  0  0  0
    6.4909   -8.7886    0.7196 H   0  0  0  0  0  0  0  0  0  0  0  0
    4.1023  -10.2139    1.1420 H   0  0  0  0  0  0  0  0  0  0  0  0
    6.5182   -9.1978    4.0434 H   0  0  0  0  0  0  0  0  0  0  0  0
    8.3298  -10.6137    4.7753 H   0  0  0  0  0  0  0  0  0  0  0  0
    8.3378  -13.0477    4.0565 H   0  0  0  0  0  0  0  0  0  0  0  0
    6.5929  -13.7659    2.2368 H   0  0  0  0  0  0  0  0  0  0  0  0
    2.9093  -10.4935    3.3318 H   0  0  0  0  0  0  0  0  0  0  0  0
    2.2206  -10.7724    5.7576 H   0  0  0  0  0  0  0  0  0  0  0  0
    3.4743   -9.6330    6.1762 H   0  0  0  0  0  0  0  0  0  0  0  0
    1.6856   -9.6506    7.9035 H   0  0  0  0  0  0  0  0  0  0  0  0
    1.2650   -7.1840    7.9749 H   0  0  0  0  0  0  0  0  0  0  0  0
    2.9040   -7.5103    7.4524 H   0  0  0  0  0  0  0  0  0  0  0  0
    1.8428   -5.8011    5.9704 H   0  0  0  0  0  0  0  0  0  0  0  0
   -0.5274   -6.5744    6.1700 H   0  0  0  0  0  0  0  0  0  0  0  0
   -0.0478   -6.4640    4.4888 H   0  0  0  0  0  0  0  0  0  0  0  0
   -1.7913   -9.5863    4.8760 H   0  0  0  0  0  0  0  0  0  0  0  0
   -0.1762  -10.3418    6.3996 H   0  0  0  0  0  0  0  0  0  0  0  0
   -0.6051   -8.9326    7.3295 H   0  0  0  0  0  0  0  0  0  0  0  0
    0.5418   -8.5994    3.1663 H   0  0  0  0  0  0  0  0  0  0  0  0
    0.4713  -10.1583    3.9538 H   0  0  0  0  0  0  0  0  0  0  0  0
    3.4990   -7.3076    5.1098 H   0  0  0  0  0  0  0  0  0  0  0  0
    2.2659   -6.8843    3.8768 H   0  0  0  0  0  0  0  0  0  0  0  0
    3.9768   -6.9321    3.3725 H   0  0  0  0  0  0  0  0  0  0  0  0
    5.1295  -12.1306    1.3179 H   0  0  0  0  0  0  0  0  0  0  0  0
  2  1  1  1
  1 31  1  0
  1 32  1  0
  1 33  1  0
  2 30  1  0
  2  3  1  0
  2  9  1  0
  3  8  1  0
  3  4  2  0
  4  5  1  0
  4 34  1  0
  5  6  2  0
  6  7  1  0
  6 35  1  0
  7  8  2  0
  7 36  1  0
  9 10  1  0
  9 37  1  0
  9 38  1  0
 10 11  1  0
 10 17  1  0
 10 39  1  6
 11 16  1  0
 11 12  2  0
 12 13  1  0
 12 40  1  0
 13 14  2  0
 13 41  1  0
 14 15  1  0
 14 42  1  0
 15 16  2  0
 15 43  1  0
 16 61  1  0
 17 18  1  0
 17 30  2  0
 19 18  1  6
 18 44  1  0
 19 28  1  0
 19 29  1  0
 19 20  1  0
 20 21  1  0
 20 45  1  0
 20 46  1  0
 21 27  1  0
 21 22  1  0
 21 47  1  1
 22 23  1  0
 22 48  1  0
 22 49  1  0
 23 24  1  0
 23 29  1  0
 23 50  1  1
 24 25  1  0
 24 51  1  0
 24 52  1  0
 25 26  1  6
 25 27  1  0
 25 28  1  0
 26 53  1  0
 27 54  1  0
 27 55  1  0
 28 56  1  0
 28 57  1  0
 29 58  1  0
 29 59  1  0
 30 60  1  0
M  CHG  2  16   1  30   1
M  END
>  <i_m_ct_stereo_status>  (10) 
1

>  <s_m_source_file>  (10) 
/var/tmp/pbs.5083858.sched01/tmpenikwtu0/0t3uzvhev.sdf

>  <i_m_source_file_index>  (10) 
4

>  <i_lp_mmshare_version>  (10) 
48012

>  <i_f3d_flags>  (10) 
0

>  <s_epik_input>  (10) 
bjFbY0hdW2NIXW5bY0hdYzFbQ0BdMihbQ0gzXSlbQ0gyXVtDQEBIXShjM1tjSF1bY0hdW2NIXVtjSF1uMylDKD1OMilbTkhdW0NAXTQ1W0NIMl1bQ0BIXTZbQ0gyXVtDQEBIXShbQ0gyXTUpW0NIMl1bQ0BdKFtPSF0pKFtDSDJdNilbQ0gyXTQ=

>  <s_epik_cmdline>  (10) 
J2VwaWtfcHl0aG9uJywgJy1waHQnLCAnMi4wJywgJy1waCcsICc3LjAnLCAnLXRuJywgJzgnLCAnLW1hJywgJzIwMCcsICctaW1hZScsICc8aW5maWxlLm1hZT4nLCAnLW9tYWUnLCAnPG91dGZpbGUubWFlPic=

>  <r_lp_tautomer_probability>  (10) 
1

>  <r_epik_Ionization_Penalty>  (10) 
2.4205

>  <r_epik_Ionization_Penalty_Charging>  (10) 
2.4205

>  <r_epik_Ionization_Penalty_Neutral>  (10) 
6.56118e-07

>  <r_epik_State_Penalty>  (10) 
2.5791

>  <r_epik_Charging_Adjusted_Penalty>  (10) 
4.9996

>  <i_epik_Tot_Q>  (10) 
2

>  <i_epik_Tot_abs_Q>  (10) 
2

>  <s_epik_Chemistry_Notes>  (10) 
This compound has an imine and may undergo hydrolysis.

>  <s_lp_Force_Field>  (10) 
OPLS3e

>  <r_lp_Energy>  (10) 
29.1359

>  <b_lp_Chiralities_Consistent>  (10) 
1

>  <s_lp_Variant>  (10) 
2:0-2

>  <s_i_glide_gridfile>  (10) 
pfpi4k_grid

>  <i_i_glide_lignum>  (10) 
4

>  <i_i_glide_rotatable_bonds>  (10) 
5

>  <r_i_docking_score>  (10) 
-4.29544

>  <r_i_glide_ligand_efficiency>  (10) 
-0.143181

>  <r_i_glide_ligand_efficiency_sa>  (10) 
-0.444897

>  <r_i_glide_ligand_efficiency_ln>  (10) 
-0.97597

>  <r_i_glide_gscore>  (10) 
-4.29544

>  <r_i_glide_lipo>  (10) 
-0.331272

>  <r_i_glide_hbond>  (10) 
-0.31032

>  <r_i_glide_metal>  (10) 
-0

>  <r_i_glide_rewards>  (10) 
-0.644074

>  <r_i_glide_evdw>  (10) 
-19.2885

>  <r_i_glide_ecoul>  (10) 
-16.0002

>  <r_i_glide_erotb>  (10) 
0.478019

>  <r_i_glide_esite>  (10) 
-0.12334

>  <r_i_glide_emodel>  (10) 
-41.9594

>  <r_i_glide_energy>  (10) 
-35.2887

>  <r_i_glide_einternal>  (10) 
8.78344

>  <r_i_glide_intrahb_reward>  (10) 
-0

>  <i_i_glide_confnum>  (10) 
3

>  <i_i_glide_posenum>  (10) 
25

>  <r_i_glide_eff_state_penalty>  (10) 
0

>  <ligand_id>  (10) 
2

>  <original_smiles>  (10) 
CC1(c2cnccn2)CC(c2ccccn2)C(NC23CC4CC(CC(O)(C4)C2)C3)=N1

>  <smiles>  (10) 
[H]OC12C([H])([H])C3([H])C([H])([H])C([H])(C1([H])[H])C([H])([H])C(N([H])C1=[N+]([H])C(c4nc([H])c([H])nc4[H])(C([H])([H])[H])C([H])([H])C1([H])c1c([H])c([H])c([H])c([H])[n+]1[H])(C3([H])[H])C2([H])[H]

$$$$
2:1:1
     RDKit          3D

 61 66  0  0  1  0  0  0  0  0999 V2000
    6.5271   -6.8704    2.2451 C   0  0  0  0  0  0  0  0  0  0  0  0
    5.0420   -7.2066    1.9206 C   0  0  1  0  0  0  0  0  0  0  0  0
    4.4032   -6.0724    1.1264 C   0  0  0  0  0  0  0  0  0  0  0  0
    3.1326   -5.5256    1.4285 C   0  0  0  0  0  0  0  0  0  0  0  0
    2.6003   -4.5203    0.7090 N   0  0  0  0  0  0  0  0  0  0  0  0
    3.3524   -4.0493   -0.3108 C   0  0  0  0  0  0  0  0  0  0  0  0
    4.6127   -4.6070   -0.6277 C   0  0  0  0  0  0  0  0  0  0  0  0
    5.1248   -5.6299    0.0813 N   0  0  0  0  0  0  0  0  0  0  0  0
    4.8933   -8.5636    1.1940 C   0  0  0  0  0  0  0  0  0  0  0  0
    4.4533   -9.6248    2.2552 C   0  0  1  0  0  0  0  0  0  0  0  0
    5.6199  -10.4570    2.7220 C   0  0  0  0  0  0  0  0  0  0  0  0
    6.4944  -10.0360    3.7548 C   0  0  0  0  0  0  0  0  0  0  0  0
    7.6045  -10.8197    4.0972 C   0  0  0  0  0  0  0  0  0  0  0  0
    7.7566  -12.0709    3.4523 C   0  0  0  0  0  0  0  0  0  0  0  0
    6.8258  -12.4556    2.4457 C   0  0  0  0  0  0  0  0  0  0  0  0
    5.8214  -11.6232    2.0980 N   0  0  0  0  0  0  0  0  0  0  0  0
    3.9290   -8.7554    3.3195 C   0  0  0  0  0  0  0  0  0  0  0  0
    3.2493   -9.2810    4.3545 N   0  0  0  0  0  0  0  0  0  0  0  0
    2.6570   -8.5747    5.4947 C   0  0  2  0  0  0  0  0  0  0  0  0
    3.7309   -7.7764    6.2864 C   0  0  0  0  0  0  0  0  0  0  0  0
    3.0739   -7.0561    7.4739 C   0  0  1  0  0  0  0  0  0  0  0  0
    1.9830   -6.0964    6.9457 C   0  0  0  0  0  0  0  0  0  0  0  0
    0.9004   -6.9032    6.2005 C   0  0  2  0  0  0  0  0  0  0  0  0
    0.2881   -7.9450    7.1533 C   0  0  0  0  0  0  0  0  0  0  0  0
    1.3862   -8.8997    7.6511 C   0  0  2  0  0  0  0  0  0  0  0  0
    0.7989   -9.8618    8.5090 O   0  0  0  0  0  0  0  0  0  0  0  0
    2.4614   -8.1048    8.4178 C   0  0  0  0  0  0  0  0  0  0  0  0
    2.0249   -9.6172    6.4497 C   0  0  0  0  0  0  0  0  0  0  0  0
    1.5373   -7.6259    4.9998 C   0  0  0  0  0  0  0  0  0  0  0  0
    4.3072   -7.4744    3.1606 N   0  0  0  0  0  0  0  0  0  0  0  0
    7.1116   -6.7194    1.3387 H   0  0  0  0  0  0  0  0  0  0  0  0
    7.0737   -7.6799    2.7152 H   0  0  0  0  0  0  0  0  0  0  0  0
    6.6159   -5.9937    2.8924 H   0  0  0  0  0  0  0  0  0  0  0  0
    2.5219   -5.8930    2.2332 H   0  0  0  0  0  0  0  0  0  0  0  0
    2.9434   -3.2344   -0.8876 H   0  0  0  0  0  0  0  0  0  0  0  0
    5.2149   -4.2461   -1.4472 H   0  0  0  0  0  0  0  0  0  0  0  0
    4.1105   -8.4941    0.4277 H   0  0  0  0  0  0  0  0  0  0  0  0
    5.8014   -8.8464    0.6542 H   0  0  0  0  0  0  0  0  0  0  0  0
    3.6496  -10.2682    1.8717 H   0  0  0  0  0  0  0  0  0  0  0  0
    6.3460   -9.1005    4.2797 H   0  0  0  0  0  0  0  0  0  0  0  0
    8.3073  -10.4830    4.8563 H   0  0  0  0  0  0  0  0  0  0  0  0
    8.5559  -12.7370    3.7446 H   0  0  0  0  0  0  0  0  0  0  0  0
    6.8578  -13.4048    1.9368 H   0  0  0  0  0  0  0  0  0  0  0  0
    3.0890  -10.2788    4.3623 H   0  0  0  0  0  0  0  0  0  0  0  0
    4.5257   -8.4405    6.6305 H   0  0  0  0  0  0  0  0  0  0  0  0
    4.2106   -7.0096    5.6878 H   0  0  0  0  0  0  0  0  0  0  0  0
    3.8344   -6.4819    8.0034 H   0  0  0  0  0  0  0  0  0  0  0  0
    1.5364   -5.5372    7.7683 H   0  0  0  0  0  0  0  0  0  0  0  0
    2.4244   -5.3581    6.2743 H   0  0  0  0  0  0  0  0  0  0  0  0
    0.1217   -6.2268    5.8449 H   0  0  0  0  0  0  0  0  0  0  0  0
   -0.1848   -7.4392    7.9951 H   0  0  0  0  0  0  0  0  0  0  0  0
   -0.4833   -8.5184    6.6367 H   0  0  0  0  0  0  0  0  0  0  0  0
    1.0146  -10.7397    8.2093 H   0  0  0  0  0  0  0  0  0  0  0  0
    3.2418   -8.7805    8.7716 H   0  0  0  0  0  0  0  0  0  0  0  0
    2.0382   -7.6139    9.2953 H   0  0  0  0  0  0  0  0  0  0  0  0
    1.2680  -10.2120    5.9301 H   0  0  0  0  0  0  0  0  0  0  0  0
    2.7766  -10.3281    6.8032 H   0  0  0  0  0  0  0  0  0  0  0  0
    1.9287   -6.8866    4.3072 H   0  0  0  0  0  0  0  0  0  0  0  0
    0.7798   -8.1893    4.4519 H   0  0  0  0  0  0  0  0  0  0  0  0
    4.0805   -6.7238    3.7972 H   0  0  0  0  0  0  0  0  0  0  0  0
    5.1352  -11.8818    1.3460 H   0  0  0  0  0  0  0  0  0  0  0  0
  2  1  1  1
  1 31  1  0
  1 32  1  0
  1 33  1  0
  2 30  1  0
  2  3  1  0
  2  9  1  0
  3  8  1  0
  3  4  2  0
  4  5  1  0
  4 34  1  0
  5  6  2  0
  6  7  1  0
  6 35  1  0
  7  8  2  0
  7 36  1  0
  9 10  1  0
  9 37  1  0
  9 38  1  0
 10 11  1  0
 10 17  1  0
 10 39  1  6
 11 16  1  0
 11 12  2  0
 12 13  1  0
 12 40  1  0
 13 14  2  0
 13 41  1  0
 14 15  1  0
 14 42  1  0
 15 16  2  0
 15 43  1  0
 16 61  1  0
 17 18  1  0
 17 30  2  0
 19 18  1  6
 18 44  1  0
 19 28  1  0
 19 29  1  0
 19 20  1  0
 20 21  1  0
 20 45  1  0
 20 46  1  0
 21 27  1  0
 21 22  1  0
 21 47  1  1
 22 23  1  0
 22 48  1  0
 22 49  1  0
 23 24  1  0
 23 29  1  0
 23 50  1  6
 24 25  1  0
 24 51  1  0
 24 52  1  0
 25 26  1  1
 25 27  1  0
 25 28  1  0
 26 53  1  0
 27 54  1  0
 27 55  1  0
 28 56  1  0
 28 57  1  0
 29 58  1  0
 29 59  1  0
 30 60  1  0
M  CHG  2  16   1  30   1
M  END
>  <i_m_ct_stereo_status>  (11) 
1

>  <s_m_source_file>  (11) 
/var/tmp/pbs.5083858.sched01/tmpenikwtu0/0t3uzvhev.sdf

>  <i_m_source_file_index>  (11) 
4

>  <i_lp_mmshare_version>  (11) 
48012

>  <i_f3d_flags>  (11) 
0

>  <s_epik_input>  (11) 
bjFbY0hdW2NIXW5bY0hdYzFbQ0BdMihbQ0gzXSlbQ0gyXVtDQEBIXShjM1tjSF1bY0hdW2NIXVtjSF1uMylDKD1OMilbTkhdW0NAXTQ1W0NIMl1bQ0BIXTZbQ0gyXVtDQEBIXShbQ0gyXTUpW0NIMl1bQ0BdKFtPSF0pKFtDSDJdNilbQ0gyXTQ=

>  <s_epik_cmdline>  (11) 
J2VwaWtfcHl0aG9uJywgJy1waHQnLCAnMi4wJywgJy1waCcsICc3LjAnLCAnLXRuJywgJzgnLCAnLW1hJywgJzIwMCcsICctaW1hZScsICc8aW5maWxlLm1hZT4nLCAnLW9tYWUnLCAnPG91dGZpbGUubWFlPic=

>  <r_lp_tautomer_probability>  (11) 
1

>  <r_epik_Ionization_Penalty>  (11) 
2.4205

>  <r_epik_Ionization_Penalty_Charging>  (11) 
2.4205

>  <r_epik_Ionization_Penalty_Neutral>  (11) 
6.56118e-07

>  <r_epik_State_Penalty>  (11) 
2.5791

>  <r_epik_Charging_Adjusted_Penalty>  (11) 
4.9996

>  <i_epik_Tot_Q>  (11) 
2

>  <i_epik_Tot_abs_Q>  (11) 
2

>  <s_epik_Chemistry_Notes>  (11) 
This compound has an imine and may undergo hydrolysis.

>  <s_lp_Force_Field>  (11) 
OPLS3e

>  <r_lp_Energy>  (11) 
29.1359

>  <b_lp_Chiralities_Consistent>  (11) 
1

>  <s_lp_Variant>  (11) 
2:0-2

>  <s_i_glide_gridfile>  (11) 
pfpi4k_grid

>  <i_i_glide_lignum>  (11) 
4

>  <i_i_glide_rotatable_bonds>  (11) 
5

>  <r_i_docking_score>  (11) 
-3.74541

>  <r_i_glide_ligand_efficiency>  (11) 
-0.124847

>  <r_i_glide_ligand_efficiency_sa>  (11) 
-0.387929

>  <r_i_glide_ligand_efficiency_ln>  (11) 
-0.850998

>  <r_i_glide_gscore>  (11) 
-3.74541

>  <r_i_glide_lipo>  (11) 
-0.181801

>  <r_i_glide_hbond>  (11) 
-0.334035

>  <r_i_glide_metal>  (11) 
-0

>  <r_i_glide_rewards>  (11) 
-0.644074

>  <r_i_glide_evdw>  (11) 
-19.0497

>  <r_i_glide_ecoul>  (11) 
-13.3523

>  <r_i_glide_erotb>  (11) 
0.478019

>  <r_i_glide_esite>  (11) 
-0.108189

>  <r_i_glide_emodel>  (11) 
-43.0903

>  <r_i_glide_energy>  (11) 
-32.402

>  <r_i_glide_einternal>  (11) 
2.30356

>  <r_i_glide_intrahb_reward>  (11) 
-0

>  <i_i_glide_confnum>  (11) 
3

>  <i_i_glide_posenum>  (11) 
1

>  <r_i_glide_eff_state_penalty>  (11) 
0

>  <ligand_id>  (11) 
2

>  <original_smiles>  (11) 
CC1(c2cnccn2)CC(c2ccccn2)C(NC23CC4CC(CC(O)(C4)C2)C3)=N1

>  <smiles>  (11) 
[H]OC12C([H])([H])C3([H])C([H])([H])C([H])(C1([H])[H])C([H])([H])C(N([H])C1=[N+]([H])C(c4nc([H])c([H])nc4[H])(C([H])([H])[H])C([H])([H])C1([H])c1c([H])c([H])c([H])c([H])[n+]1[H])(C3([H])[H])C2([H])[H]

$$$$
2:1:2
     RDKit          3D

 61 66  0  0  1  0  0  0  0  0999 V2000
    1.2818    4.6492    7.6051 C   0  0  0  0  0  0  0  0  0  0  0  0
    0.2140    4.2378    6.5621 C   0  0  1  0  0  0  0  0  0  0  0  0
   -1.0617    3.7749    7.2656 C   0  0  0  0  0  0  0  0  0  0  0  0
   -1.6594    2.5175    7.0290 C   0  0  0  0  0  0  0  0  0  0  0  0
   -2.7815    2.1330    7.6662 N   0  0  0  0  0  0  0  0  0  0  0  0
   -3.3090    2.9923    8.5683 C   0  0  0  0  0  0  0  0  0  0  0  0
   -2.7284    4.2568    8.7965 C   0  0  0  0  0  0  0  0  0  0  0  0
   -1.6152    4.6513    8.1368 N   0  0  0  0  0  0  0  0  0  0  0  0
   -0.0906    5.3833    5.5695 C   0  0  0  0  0  0  0  0  0  0  0  0
    0.6804    5.0908    4.2696 C   0  0  1  0  0  0  0  0  0  0  0  0
    1.9513    5.8969    4.2102 C   0  0  0  0  0  0  0  0  0  0  0  0
    3.1856    5.3650    4.6423 C   0  0  0  0  0  0  0  0  0  0  0  0
    4.3435    6.1560    4.5778 C   0  0  0  0  0  0  0  0  0  0  0  0
    4.2333    7.4725    4.0805 C   0  0  0  0  0  0  0  0  0  0  0  0
    2.9662    7.9660    3.6916 C   0  0  0  0  0  0  0  0  0  0  0  0
    1.8856    7.1616    3.7523 N   0  0  0  0  0  0  0  0  0  0  0  0
    0.9556    3.6443    4.4165 C   0  0  0  0  0  0  0  0  0  0  0  0
    1.4205    2.9157    3.3873 N   0  0  0  0  0  0  0  0  0  0  0  0
    1.8130    1.5045    3.3961 C   0  0  2  0  0  0  0  0  0  0  0  0
    3.0331    1.2784    4.3314 C   0  0  0  0  0  0  0  0  0  0  0  0
    3.4432   -0.2071    4.2971 C   0  0  1  0  0  0  0  0  0  0  0  0
    2.2503   -1.0735    4.7589 C   0  0  0  0  0  0  0  0  0  0  0  0
    1.0572   -0.8691    3.8026 C   0  0  2  0  0  0  0  0  0  0  0  0
    1.4662   -1.2638    2.3720 C   0  0  0  0  0  0  0  0  0  0  0  0
    2.6477   -0.3813    1.9160 C   0  0  2  0  0  0  0  0  0  0  0  0
    3.0233   -0.7335    0.5975 O   0  0  0  0  0  0  0  0  0  0  0  0
    3.8523   -0.5877    2.8585 C   0  0  0  0  0  0  0  0  0  0  0  0
    2.2196    1.1031    1.9633 C   0  0  0  0  0  0  0  0  0  0  0  0
    0.6276    0.6075    3.8261 C   0  0  0  0  0  0  0  0  0  0  0  0
    0.7594    3.2167    5.6735 N   0  0  0  0  0  0  0  0  0  0  0  0
    0.9288    5.4435    8.2650 H   0  0  0  0  0  0  0  0  0  0  0  0
    2.1743    5.0423    7.1258 H   0  0  0  0  0  0  0  0  0  0  0  0
    1.5860    3.8104    8.2311 H   0  0  0  0  0  0  0  0  0  0  0  0
   -1.2750    1.8050    6.3223 H   0  0  0  0  0  0  0  0  0  0  0  0
   -4.2028    2.6780    9.0984 H   0  0  0  0  0  0  0  0  0  0  0  0
   -3.1554    4.9532    9.5070 H   0  0  0  0  0  0  0  0  0  0  0  0
   -1.1551    5.3595    5.3352 H   0  0  0  0  0  0  0  0  0  0  0  0
    0.1208    6.3640    6.0038 H   0  0  0  0  0  0  0  0  0  0  0  0
    0.0838    5.2587    3.3693 H   0  0  0  0  0  0  0  0  0  0  0  0
    3.2654    4.3642    5.0375 H   0  0  0  0  0  0  0  0  0  0  0  0
    5.3050    5.7677    4.8970 H   0  0  0  0  0  0  0  0  0  0  0  0
    5.1105    8.0938    3.9631 H   0  0  0  0  0  0  0  0  0  0  0  0
    2.7730    8.9459    3.2863 H   0  0  0  0  0  0  0  0  0  0  0  0
    1.4987    3.3811    2.4888 H   0  0  0  0  0  0  0  0  0  0  0  0
    3.8775    1.9038    4.0315 H   0  0  0  0  0  0  0  0  0  0  0  0
    2.8052    1.5497    5.3601 H   0  0  0  0  0  0  0  0  0  0  0  0
    4.2896   -0.3665    4.9666 H   0  0  0  0  0  0  0  0  0  0  0  0
    2.5301   -2.1261    4.7871 H   0  0  0  0  0  0  0  0  0  0  0  0
    1.9669   -0.8001    5.7760 H   0  0  0  0  0  0  0  0  0  0  0  0
    0.2200   -1.4868    4.1229 H   0  0  0  0  0  0  0  0  0  0  0  0
    1.7397   -2.3182    2.3363 H   0  0  0  0  0  0  0  0  0  0  0  0
    0.6219   -1.1259    1.6961 H   0  0  0  0  0  0  0  0  0  0  0  0
    2.2465   -0.7309    0.0481 H   0  0  0  0  0  0  0  0  0  0  0  0
    4.6909    0.0317    2.5359 H   0  0  0  0  0  0  0  0  0  0  0  0
    4.1934   -1.6222    2.8244 H   0  0  0  0  0  0  0  0  0  0  0  0
    1.3905    1.2777    1.2740 H   0  0  0  0  0  0  0  0  0  0  0  0
    3.0483    1.7332    1.6405 H   0  0  0  0  0  0  0  0  0  0  0  0
    0.2938    0.8382    4.8326 H   0  0  0  0  0  0  0  0  0  0  0  0
   -0.2244    0.7776    3.1663 H   0  0  0  0  0  0  0  0  0  0  0  0
    0.9030    2.2743    6.0048 H   0  0  0  0  0  0  0  0  0  0  0  0
    0.9971    7.5492    3.4070 H   0  0  0  0  0  0  0  0  0  0  0  0
  2  1  1  1
  1 31  1  0
  1 32  1  0
  1 33  1  0
  2 30  1  0
  2  3  1  0
  2  9  1  0
  3  8  1  0
  3  4  2  0
  4  5  1  0
  4 34  1  0
  5  6  2  0
  6  7  1  0
  6 35  1  0
  7  8  2  0
  7 36  1  0
  9 10  1  0
  9 37  1  0
  9 38  1  0
 10 11  1  0
 10 17  1  0
 10 39  1  6
 11 16  1  0
 11 12  2  0
 12 13  1  0
 12 40  1  0
 13 14  2  0
 13 41  1  0
 14 15  1  0
 14 42  1  0
 15 16  2  0
 15 43  1  0
 16 61  1  0
 17 18  1  0
 17 30  2  0
 19 18  1  6
 18 44  1  0
 19 28  1  0
 19 29  1  0
 19 20  1  0
 20 21  1  0
 20 45  1  0
 20 46  1  0
 21 27  1  0
 21 22  1  0
 21 47  1  1
 22 23  1  0
 22 48  1  0
 22 49  1  0
 23 24  1  0
 23 29  1  0
 23 50  1  1
 24 25  1  0
 24 51  1  0
 24 52  1  0
 25 26  1  6
 25 27  1  0
 25 28  1  0
 26 53  1  0
 27 54  1  0
 27 55  1  0
 28 56  1  0
 28 57  1  0
 29 58  1  0
 29 59  1  0
 30 60  1  0
M  CHG  2  16   1  30   1
M  END
>  <i_m_ct_stereo_status>  (12) 
1

>  <s_m_source_file>  (12) 
/var/tmp/pbs.5083858.sched01/tmpenikwtu0/0t3uzvhev.sdf

>  <i_m_source_file_index>  (12) 
4

>  <i_lp_mmshare_version>  (12) 
48012

>  <i_f3d_flags>  (12) 
0

>  <s_epik_input>  (12) 
bjFbY0hdW2NIXW5bY0hdYzFbQ0BdMihbQ0gzXSlbQ0gyXVtDQEBIXShjM1tjSF1bY0hdW2NIXVtjSF1uMylDKD1OMilbTkhdW0NAXTQ1W0NIMl1bQ0BIXTZbQ0gyXVtDQEBIXShbQ0gyXTUpW0NIMl1bQ0BdKFtPSF0pKFtDSDJdNilbQ0gyXTQ=

>  <s_epik_cmdline>  (12) 
J2VwaWtfcHl0aG9uJywgJy1waHQnLCAnMi4wJywgJy1waCcsICc3LjAnLCAnLXRuJywgJzgnLCAnLW1hJywgJzIwMCcsICctaW1hZScsICc8aW5maWxlLm1hZT4nLCAnLW9tYWUnLCAnPG91dGZpbGUubWFlPic=

>  <r_lp_tautomer_probability>  (12) 
1

>  <r_epik_Ionization_Penalty>  (12) 
2.4205

>  <r_epik_Ionization_Penalty_Charging>  (12) 
2.4205

>  <r_epik_Ionization_Penalty_Neutral>  (12) 
6.56118e-07

>  <r_epik_State_Penalty>  (12) 
2.5791

>  <r_epik_Charging_Adjusted_Penalty>  (12) 
4.9996

>  <i_epik_Tot_Q>  (12) 
2

>  <i_epik_Tot_abs_Q>  (12) 
2

>  <s_epik_Chemistry_Notes>  (12) 
This compound has an imine and may undergo hydrolysis.

>  <s_lp_Force_Field>  (12) 
OPLS3e

>  <r_lp_Energy>  (12) 
29.1359

>  <b_lp_Chiralities_Consistent>  (12) 
1

>  <s_lp_Variant>  (12) 
2:0-2

>  <s_i_glide_gridfile>  (12) 
pfpi4k_grid

>  <i_i_glide_lignum>  (12) 
4

>  <i_i_glide_rotatable_bonds>  (12) 
5

>  <r_i_docking_score>  (12) 
-3.60466

>  <r_i_glide_ligand_efficiency>  (12) 
-0.120155

>  <r_i_glide_ligand_efficiency_sa>  (12) 
-0.373351

>  <r_i_glide_ligand_efficiency_ln>  (12) 
-0.819019

>  <r_i_glide_gscore>  (12) 
-3.60466

>  <r_i_glide_lipo>  (12) 
-0.204527

>  <r_i_glide_hbond>  (12) 
-0.364199

>  <r_i_glide_metal>  (12) 
-0

>  <r_i_glide_rewards>  (12) 
-0.644074

>  <r_i_glide_evdw>  (12) 
-23.7526

>  <r_i_glide_ecoul>  (12) 
-10.2507

>  <r_i_glide_erotb>  (12) 
0.478019

>  <r_i_glide_esite>  (12) 
-0.144639

>  <r_i_glide_emodel>  (12) 
-45.6804

>  <r_i_glide_energy>  (12) 
-34.0034

>  <r_i_glide_einternal>  (12) 
0.330593

>  <r_i_glide_intrahb_reward>  (12) 
-0

>  <i_i_glide_confnum>  (12) 
3

>  <i_i_glide_posenum>  (12) 
2

>  <r_i_glide_eff_state_penalty>  (12) 
0

>  <ligand_id>  (12) 
2

>  <original_smiles>  (12) 
CC1(c2cnccn2)CC(c2ccccn2)C(NC23CC4CC(CC(O)(C4)C2)C3)=N1

>  <smiles>  (12) 
[H]OC12C([H])([H])C3([H])C([H])([H])C([H])(C1([H])[H])C([H])([H])C(N([H])C1=[N+]([H])C(c4nc([H])c([H])nc4[H])(C([H])([H])[H])C([H])([H])C1([H])c1c([H])c([H])c([H])c([H])[n+]1[H])(C3([H])[H])C2([H])[H]

$$$$
3:1:0
     RDKit          3D

 31 34  0  0  1  0  0  0  0  0999 V2000
    4.0251   -6.2393    0.2766 C   0  0  0  0  0  0  0  0  0  0  0  0
    4.5166   -4.9262    0.8963 C   0  0  0  0  0  0  0  0  0  0  0  0
    4.4316   -3.8143   -0.0652 N   0  0  0  0  0  0  0  0  0  0  0  0
    3.3072   -3.1270   -0.3096 C   0  0  0  0  0  0  0  0  0  0  0  0
    2.2256   -3.3371    0.2286 O   0  0  0  0  0  0  0  0  0  0  0  0
    3.5270   -2.0146   -1.3298 C   0  0  1  0  0  0  0  0  0  0  0  0
    5.0287   -2.1850   -1.6858 C   0  0  1  0  0  0  0  0  0  0  0  0
    5.4555   -3.3580   -0.8037 C   0  0  0  0  0  0  0  0  0  0  0  0
    6.6184   -3.7706   -0.7656 O   0  0  0  0  0  0  0  0  0  0  0  0
    5.1770   -2.4276   -3.2239 C   0  0  1  0  0  0  0  0  0  0  0  0
    4.2840   -3.5947   -3.6130 C   0  0  0  0  0  0  0  0  0  0  0  0
    2.9842   -3.4174   -3.3272 C   0  0  0  0  0  0  0  0  0  0  0  0
    2.6545   -2.1214   -2.6254 C   0  0  2  0  0  0  0  0  0  0  0  0
    3.0941   -1.0381   -3.6190 C   0  0  1  0  0  0  0  0  0  0  0  0
    4.0887    0.0784   -3.3612 C   0  0  0  0  0  0  0  0  0  0  0  0
    4.5709   -1.2158   -3.9771 C   0  0  1  0  0  0  0  0  0  0  0  0
    4.1014   -7.0594    0.9907 H   0  0  0  0  0  0  0  0  0  0  0  0
    4.6109   -6.5001   -0.6016 H   0  0  0  0  0  0  0  0  0  0  0  0
    2.9846   -6.1640   -0.0284 H   0  0  0  0  0  0  0  0  0  0  0  0
    3.9241   -4.6907    1.7827 H   0  0  0  0  0  0  0  0  0  0  0  0
    5.5364   -5.0456    1.2564 H   0  0  0  0  0  0  0  0  0  0  0  0
    3.3447   -1.0630   -0.8265 H   0  0  0  0  0  0  0  0  0  0  0  0
    5.6110   -1.3219   -1.3738 H   0  0  0  0  0  0  0  0  0  0  0  0
    6.2072   -2.6563   -3.5097 H   0  0  0  0  0  0  0  0  0  0  0  0
    4.6808   -4.4953   -4.0726 H   0  0  0  0  0  0  0  0  0  0  0  0
    2.2084   -4.1454   -3.5263 H   0  0  0  0  0  0  0  0  0  0  0  0
    1.5927   -2.1415   -2.4331 H   0  0  0  0  0  0  0  0  0  0  0  0
    2.4284   -0.9122   -4.4693 H   0  0  0  0  0  0  0  0  0  0  0  0
    4.0300    0.9428   -4.0232 H   0  0  0  0  0  0  0  0  0  0  0  0
    4.3586    0.3154   -2.3380 H   0  0  0  0  0  0  0  0  0  0  0  0
    4.7642   -1.1829   -5.0418 H   0  0  0  0  0  0  0  0  0  0  0  0
  1  2  1  0
  1 17  1  0
  1 18  1  0
  1 19  1  0
  2 20  1  0
  2 21  1  0
  2  3  1  0
  3  8  1  0
  3  4  1  0
  4  5  2  0
  4  6  1  0
  6 13  1  0
  6 22  1  1
  6  7  1  0
  7 10  1  0
  7 23  1  1
  7  8  1  0
  8  9  2  0
 10 16  1  0
 10 11  1  0
 10 24  1  1
 11 12  2  0
 11 25  1  0
 12 13  1  0
 12 26  1  0
 13 14  1  0
 13 27  1  1
 14 16  1  0
 14 15  1  0
 14 28  1  6
 15 16  1  0
 15 29  1  0
 15 30  1  0
 16 31  1  6
M  END
>  <i_m_ct_stereo_status>  (13) 
1

>  <s_m_source_file>  (13) 
/var/tmp/pbs.5083858.sched01/tmp89x1fiek/50k1xxx4n.sdf

>  <i_m_source_file_index>  (13) 
1

>  <i_lp_mmshare_version>  (13) 
48012

>  <i_f3d_flags>  (13) 
0

>  <s_epik_input>  (13) 
W0NIM11bQ0gyXW4oYzFbT0hdKWMoW09IXSljKGMxMilbQ0BASF0zW0NASF00W0NASF0oW0NIMl00KVtDQEhdMltDSF09W0NIXTM=

>  <s_epik_cmdline>  (13) 
J2VwaWtfcHl0aG9uJywgJy1waHQnLCAnMi4wJywgJy1waCcsICc3LjAnLCAnLXRuJywgJzgnLCAnLW1hJywgJzIwMCcsICctaW1hZScsICc8aW5maWxlLm1hZT4nLCAnLW9tYWUnLCAnPG91dGZpbGUubWFlPic=

>  <r_lp_tautomer_probability>  (13) 
1

>  <r_epik_Ionization_Penalty>  (13) 
9.03415e-10

>  <r_epik_Ionization_Penalty_Charging>  (13) 
0

>  <r_epik_Ionization_Penalty_Neutral>  (13) 
9.03415e-10

>  <r_epik_State_Penalty>  (13) 
-0

>  <r_epik_Charging_Adjusted_Penalty>  (13) 
0

>  <i_epik_Tot_Q>  (13) 
0

>  <i_epik_Tot_abs_Q>  (13) 
0

>  <s_lp_Force_Field>  (13) 
OPLS3e

>  <r_lp_Energy>  (13) 
31.0877

>  <b_lp_Chiralities_Consistent>  (13) 
1

>  <s_lp_Variant>  (13) 
3:0-2

>  <s_i_glide_gridfile>  (13) 
pfpi4k_grid

>  <i_i_glide_lignum>  (13) 
1

>  <i_i_glide_rotatable_bonds>  (13) 
1

>  <r_i_docking_score>  (13) 
-3.84475

>  <r_i_glide_ligand_efficiency>  (13) 
-0.240297

>  <r_i_glide_ligand_efficiency_sa>  (13) 
-0.605509

>  <r_i_glide_ligand_efficiency_ln>  (13) 
-1.01913

>  <r_i_glide_gscore>  (13) 
-3.84475

>  <r_i_glide_lipo>  (13) 
-0.745275

>  <r_i_glide_hbond>  (13) 
-0.00676277

>  <r_i_glide_metal>  (13) 
-0

>  <r_i_glide_rewards>  (13) 
-2.05543

>  <r_i_glide_evdw>  (13) 
-16.6663

>  <r_i_glide_ecoul>  (13) 
-1.33471

>  <r_i_glide_erotb>  (13) 
0

>  <r_i_glide_esite>  (13) 
-0.00376069

>  <r_i_glide_emodel>  (13) 
-21.9805

>  <r_i_glide_energy>  (13) 
-18.001

>  <r_i_glide_einternal>  (13) 
0.0520333

>  <r_i_glide_intrahb_reward>  (13) 
-0

>  <i_i_glide_confnum>  (13) 
1

>  <i_i_glide_posenum>  (13) 
6

>  <r_i_glide_eff_state_penalty>  (13) 
0

>  <ligand_id>  (13) 
3

>  <original_smiles>  (13) 
CCn1c(O)c2c(c1O)C1C=CC2C2CC12

>  <smiles>  (13) 
[H]C1=C([H])C2([H])C3([H])C(=O)N(C([H])([H])C([H])([H])[H])C(=O)C3([H])C1([H])C1([H])C([H])([H])C21[H]

$$$$
3:1:1
     RDKit          3D

 31 34  0  0  1  0  0  0  0  0999 V2000
    5.3699   -4.9230    1.5548 C   0  0  0  0  0  0  0  0  0  0  0  0
    4.2339   -3.9047    1.7256 C   0  0  0  0  0  0  0  0  0  0  0  0
    3.9278   -3.2172    0.4629 N   0  0  0  0  0  0  0  0  0  0  0  0
    3.0259   -3.6563   -0.4321 C   0  0  0  0  0  0  0  0  0  0  0  0
    2.3002   -4.6452   -0.3046 O   0  0  0  0  0  0  0  0  0  0  0  0
    2.9580   -2.7431   -1.6572 C   0  0  1  0  0  0  0  0  0  0  0  0
    3.9746   -1.6216   -1.2907 C   0  0  1  0  0  0  0  0  0  0  0  0
    4.5222   -2.0828    0.0560 C   0  0  0  0  0  0  0  0  0  0  0  0
    5.4037   -1.4605    0.6576 O   0  0  0  0  0  0  0  0  0  0  0  0
    5.0495   -1.5029   -2.4168 C   0  0  1  0  0  0  0  0  0  0  0  0
    5.6563   -2.8952   -2.6271 C   0  0  0  0  0  0  0  0  0  0  0  0
    4.7694   -3.8555   -2.9457 C   0  0  0  0  0  0  0  0  0  0  0  0
    3.3224   -3.3792   -3.0292 C   0  0  2  0  0  0  0  0  0  0  0  0
    3.3313   -2.2728   -4.0897 C   0  0  1  0  0  0  0  0  0  0  0  0
    2.8834   -0.8312   -3.9186 C   0  0  0  0  0  0  0  0  0  0  0  0
    4.3429   -1.1839   -3.7446 C   0  0  1  0  0  0  0  0  0  0  0  0
    5.5856   -5.4237    2.4980 H   0  0  0  0  0  0  0  0  0  0  0  0
    6.2851   -4.4398    1.2186 H   0  0  0  0  0  0  0  0  0  0  0  0
    5.1103   -5.6882    0.8251 H   0  0  0  0  0  0  0  0  0  0  0  0
    3.3437   -4.4112    2.1030 H   0  0  0  0  0  0  0  0  0  0  0  0
    4.4992   -3.1785    2.4969 H   0  0  0  0  0  0  0  0  0  0  0  0
    1.9435   -2.3879   -1.7537 H   0  0  0  0  0  0  0  0  0  0  0  0
    3.4675   -0.6689   -1.1270 H   0  0  0  0  0  0  0  0  0  0  0  0
    5.7997   -0.7496   -2.1823 H   0  0  0  0  0  0  0  0  0  0  0  0
    6.7190   -3.0672   -2.5246 H   0  0  0  0  0  0  0  0  0  0  0  0
    5.0205   -4.8914   -3.1200 H   0  0  0  0  0  0  0  0  0  0  0  0
    2.6154   -4.1485   -3.3357 H   0  0  0  0  0  0  0  0  0  0  0  0
    3.3768   -2.6583   -5.1010 H   0  0  0  0  0  0  0  0  0  0  0  0
    2.6081   -0.2980   -4.8267 H   0  0  0  0  0  0  0  0  0  0  0  0
    2.3166   -0.5301   -3.0400 H   0  0  0  0  0  0  0  0  0  0  0  0
    5.0058   -0.9007   -4.5566 H   0  0  0  0  0  0  0  0  0  0  0  0
  1  2  1  0
  1 17  1  0
  1 18  1  0
  1 19  1  0
  2 20  1  0
  2 21  1  0
  2  3  1  0
  3  8  1  0
  3  4  1  0
  4  5  2  0
  4  6  1  0
  6 13  1  0
  6 22  1  6
  6  7  1  0
  7 10  1  0
  7 23  1  1
  7  8  1  0
  8  9  2  0
 10 16  1  0
 10 11  1  0
 10 24  1  1
 11 12  2  0
 11 25  1  0
 12 13  1  0
 12 26  1  0
 13 14  1  0
 13 27  1  6
 14 16  1  0
 14 15  1  0
 14 28  1  6
 15 16  1  0
 15 29  1  0
 15 30  1  0
 16 31  1  6
M  END
>  <i_m_ct_stereo_status>  (14) 
1

>  <s_m_source_file>  (14) 
/var/tmp/pbs.5083858.sched01/tmp89x1fiek/50k1xxx4n.sdf

>  <i_m_source_file_index>  (14) 
1

>  <i_lp_mmshare_version>  (14) 
48012

>  <i_f3d_flags>  (14) 
0

>  <s_epik_input>  (14) 
W0NIM11bQ0gyXW4oYzFbT0hdKWMoW09IXSljKGMxMilbQ0BASF0zW0NASF00W0NASF0oW0NIMl00KVtDQEhdMltDSF09W0NIXTM=

>  <s_epik_cmdline>  (14) 
J2VwaWtfcHl0aG9uJywgJy1waHQnLCAnMi4wJywgJy1waCcsICc3LjAnLCAnLXRuJywgJzgnLCAnLW1hJywgJzIwMCcsICctaW1hZScsICc8aW5maWxlLm1hZT4nLCAnLW9tYWUnLCAnPG91dGZpbGUubWFlPic=

>  <r_lp_tautomer_probability>  (14) 
1

>  <r_epik_Ionization_Penalty>  (14) 
9.03415e-10

>  <r_epik_Ionization_Penalty_Charging>  (14) 
0

>  <r_epik_Ionization_Penalty_Neutral>  (14) 
9.03415e-10

>  <r_epik_State_Penalty>  (14) 
-0

>  <r_epik_Charging_Adjusted_Penalty>  (14) 
0

>  <i_epik_Tot_Q>  (14) 
0

>  <i_epik_Tot_abs_Q>  (14) 
0

>  <s_lp_Force_Field>  (14) 
OPLS3e

>  <r_lp_Energy>  (14) 
31.0877

>  <b_lp_Chiralities_Consistent>  (14) 
1

>  <s_lp_Variant>  (14) 
3:0-2

>  <s_i_glide_gridfile>  (14) 
pfpi4k_grid

>  <i_i_glide_lignum>  (14) 
1

>  <i_i_glide_rotatable_bonds>  (14) 
1

>  <r_i_docking_score>  (14) 
-3.52583

>  <r_i_glide_ligand_efficiency>  (14) 
-0.220364

>  <r_i_glide_ligand_efficiency_sa>  (14) 
-0.555283

>  <r_i_glide_ligand_efficiency_ln>  (14) 
-0.934591

>  <r_i_glide_gscore>  (14) 
-3.52583

>  <r_i_glide_lipo>  (14) 
-0.538281

>  <r_i_glide_hbond>  (14) 
0

>  <r_i_glide_metal>  (14) 
-0

>  <r_i_glide_rewards>  (14) 
-1.92954

>  <r_i_glide_evdw>  (14) 
-15.9545

>  <r_i_glide_ecoul>  (14) 
-1.62478

>  <r_i_glide_erotb>  (14) 
0

>  <r_i_glide_esite>  (14) 
-0.0165641

>  <r_i_glide_emodel>  (14) 
-21.2566

>  <r_i_glide_energy>  (14) 
-17.5793

>  <r_i_glide_einternal>  (14) 
2.93041e-05

>  <r_i_glide_intrahb_reward>  (14) 
-0

>  <i_i_glide_confnum>  (14) 
1

>  <i_i_glide_posenum>  (14) 
8

>  <r_i_glide_eff_state_penalty>  (14) 
0

>  <ligand_id>  (14) 
3

>  <original_smiles>  (14) 
CCn1c(O)c2c(c1O)C1C=CC2C2CC12

>  <smiles>  (14) 
[H]C1=C([H])C2([H])C3([H])C(=O)N(C([H])([H])C([H])([H])[H])C(=O)C3([H])C1([H])C1([H])C([H])([H])C21[H]

$$$$
3:1:2
     RDKit          3D

 31 34  0  0  1  0  0  0  0  0999 V2000
    3.4831   -5.1156    1.6947 C   0  0  0  0  0  0  0  0  0  0  0  0
    2.2828   -4.3598    1.1530 C   0  0  0  0  0  0  0  0  0  0  0  0
    2.6979   -3.3819    0.1633 N   0  0  0  0  0  0  0  0  0  0  0  0
    2.2914   -3.3768   -1.0923 C   0  0  0  0  0  0  0  0  0  0  0  0
    1.4166   -4.1230   -1.5671 O   0  0  0  0  0  0  0  0  0  0  0  0
    2.8776   -2.2220   -1.8886 C   0  0  1  0  0  0  0  0  0  0  0  0
    3.5522   -1.4052   -0.7306 C   0  0  1  0  0  0  0  0  0  0  0  0
    3.3746   -2.2577    0.4901 C   0  0  0  0  0  0  0  0  0  0  0  0
    3.7728   -1.8947    1.6000 O   0  0  0  0  0  0  0  0  0  0  0  0
    5.0091   -1.1550   -1.0879 C   0  0  1  0  0  0  0  0  0  0  0  0
    5.6819   -2.4924   -1.4150 C   0  0  0  0  0  0  0  0  0  0  0  0
    5.1148   -3.1920   -2.4156 C   0  0  0  0  0  0  0  0  0  0  0  0
    3.9020   -2.5248   -3.0496 C   0  0  2  0  0  0  0  0  0  0  0  0
    4.4537   -1.1701   -3.5620 C   0  0  1  0  0  0  0  0  0  0  0  0
    3.8897    0.1927   -3.2267 C   0  0  0  0  0  0  0  0  0  0  0  0
    5.0266   -0.3824   -2.3654 C   0  0  1  0  0  0  0  0  0  0  0  0
    3.1499   -5.8723    2.3989 H   0  0  0  0  0  0  0  0  0  0  0  0
    4.1608   -4.4376    2.2020 H   0  0  0  0  0  0  0  0  0  0  0  0
    4.0168   -5.5909    0.8732 H   0  0  0  0  0  0  0  0  0  0  0  0
    1.5964   -5.0753    0.7132 H   0  0  0  0  0  0  0  0  0  0  0  0
    1.7487   -3.8430    1.9536 H   0  0  0  0  0  0  0  0  0  0  0  0
    2.0810   -1.6371   -2.3375 H   0  0  0  0  0  0  0  0  0  0  0  0
    3.0581   -0.4698   -0.4715 H   0  0  0  0  0  0  0  0  0  0  0  0
    5.5340   -0.5921   -0.3303 H   0  0  0  0  0  0  0  0  0  0  0  0
    6.5554   -2.8185   -0.8544 H   0  0  0  0  0  0  0  0  0  0  0  0
    5.4560   -4.1557   -2.7609 H   0  0  0  0  0  0  0  0  0  0  0  0
    3.4573   -3.0959   -3.8668 H   0  0  0  0  0  0  0  0  0  0  0  0
    5.0269   -1.2126   -4.4714 H   0  0  0  0  0  0  0  0  0  0  0  0
    4.1989    1.0007   -3.8874 H   0  0  0  0  0  0  0  0  0  0  0  0
    2.8659    0.2802   -2.8584 H   0  0  0  0  0  0  0  0  0  0  0  0
    5.9946    0.0883   -2.3411 H   0  0  0  0  0  0  0  0  0  0  0  0
  1  2  1  0
  1 17  1  0
  1 18  1  0
  1 19  1  0
  2 20  1  0
  2 21  1  0
  2  3  1  0
  3  8  1  0
  3  4  1  0
  4  5  2  0
  4  6  1  0
  6 13  1  0
  6 22  1  6
  6  7  1  0
  7 10  1  0
  7 23  1  1
  7  8  1  0
  8  9  2  0
 10 16  1  0
 10 11  1  0
 10 24  1  1
 11 12  2  0
 11 25  1  0
 12 13  1  0
 12 26  1  0
 13 14  1  0
 13 27  1  6
 14 16  1  0
 14 15  1  0
 14 28  1  6
 15 16  1  0
 15 29  1  0
 15 30  1  0
 16 31  1  6
M  END
>  <i_m_ct_stereo_status>  (15) 
1

>  <s_m_source_file>  (15) 
/var/tmp/pbs.5083858.sched01/tmp89x1fiek/50k1xxx4n.sdf

>  <i_m_source_file_index>  (15) 
1

>  <i_lp_mmshare_version>  (15) 
48012

>  <i_f3d_flags>  (15) 
0

>  <s_epik_input>  (15) 
W0NIM11bQ0gyXW4oYzFbT0hdKWMoW09IXSljKGMxMilbQ0BASF0zW0NASF00W0NASF0oW0NIMl00KVtDQEhdMltDSF09W0NIXTM=

>  <s_epik_cmdline>  (15) 
J2VwaWtfcHl0aG9uJywgJy1waHQnLCAnMi4wJywgJy1waCcsICc3LjAnLCAnLXRuJywgJzgnLCAnLW1hJywgJzIwMCcsICctaW1hZScsICc8aW5maWxlLm1hZT4nLCAnLW9tYWUnLCAnPG91dGZpbGUubWFlPic=

>  <r_lp_tautomer_probability>  (15) 
1

>  <r_epik_Ionization_Penalty>  (15) 
9.03415e-10

>  <r_epik_Ionization_Penalty_Charging>  (15) 
0

>  <r_epik_Ionization_Penalty_Neutral>  (15) 
9.03415e-10

>  <r_epik_State_Penalty>  (15) 
-0

>  <r_epik_Charging_Adjusted_Penalty>  (15) 
0

>  <i_epik_Tot_Q>  (15) 
0

>  <i_epik_Tot_abs_Q>  (15) 
0

>  <s_lp_Force_Field>  (15) 
OPLS3e

>  <r_lp_Energy>  (15) 
31.0877

>  <b_lp_Chiralities_Consistent>  (15) 
1

>  <s_lp_Variant>  (15) 
3:0-2

>  <s_i_glide_gridfile>  (15) 
pfpi4k_grid

>  <i_i_glide_lignum>  (15) 
1

>  <i_i_glide_rotatable_bonds>  (15) 
1

>  <r_i_docking_score>  (15) 
-2.79124

>  <r_i_glide_ligand_efficiency>  (15) 
-0.174453

>  <r_i_glide_ligand_efficiency_sa>  (15) 
-0.439593

>  <r_i_glide_ligand_efficiency_ln>  (15) 
-0.739874

>  <r_i_glide_gscore>  (15) 
-2.79124

>  <r_i_glide_lipo>  (15) 
-0.452164

>  <r_i_glide_hbond>  (15) 
0

>  <r_i_glide_metal>  (15) 
-0

>  <r_i_glide_rewards>  (15) 
-1.92775

>  <r_i_glide_evdw>  (15) 
-6.77742

>  <r_i_glide_ecoul>  (15) 
-0.0067489

>  <r_i_glide_erotb>  (15) 
0

>  <r_i_glide_esite>  (15) 
-0.0714456

>  <r_i_glide_emodel>  (15) 
-7.62602

>  <r_i_glide_energy>  (15) 
-6.78417

>  <r_i_glide_einternal>  (15) 
0.673955

>  <r_i_glide_intrahb_reward>  (15) 
-0

>  <i_i_glide_confnum>  (15) 
2

>  <i_i_glide_posenum>  (15) 
20

>  <r_i_glide_eff_state_penalty>  (15) 
0

>  <ligand_id>  (15) 
3

>  <original_smiles>  (15) 
CCn1c(O)c2c(c1O)C1C=CC2C2CC12

>  <smiles>  (15) 
[H]C1=C([H])C2([H])C3([H])C(=O)N(C([H])([H])C([H])([H])[H])C(=O)C3([H])C1([H])C1([H])C([H])([H])C21[H]

$$$$
4:0:0
     RDKit          3D

 87 98  0  0  1  0  0  0  0  0999 V2000
    3.6094   -5.1774    7.0316 C   0  0  0  0  0  0  0  0  0  0  0  0
    3.9066   -4.7142    5.5961 C   0  0  2  0  0  0  0  0  0  0  0  0
    2.7196   -3.9391    4.8814 C   0  0  0  0  0  0  0  0  0  0  0  0
    2.3608   -2.4933    5.3626 C   0  0  2  0  0  0  0  0  0  0  0  0
    1.1958   -2.3418    6.2700 N   0  0  0  0  0  0  0  0  0  0  0  0
    1.3632   -2.9607    7.5752 C   0  0  0  0  0  0  0  0  0  0  0  0
   -0.1387   -2.6705    5.7637 C   0  0  0  0  0  0  0  0  0  0  0  0
   -0.6316   -1.7381    4.6393 C   0  0  0  0  0  0  0  0  0  0  0  0
    0.0878   -0.3716    4.6913 C   0  0  1  0  0  0  0  0  0  0  0  0
    1.4035   -0.6306    3.9424 C   0  0  0  0  0  0  0  0  0  0  0  0
    1.6796   -0.0892    2.6686 C   0  0  0  0  0  0  0  0  0  0  0  0
    3.0119   -0.4192    2.3309 C   0  0  0  0  0  0  0  0  0  0  0  0
    3.8856   -0.1012    1.2640 C   0  0  0  0  0  0  0  0  0  0  0  0
    5.1957   -0.6149    1.2293 C   0  0  0  0  0  0  0  0  0  0  0  0
    5.6396   -1.4473    2.2583 C   0  0  0  0  0  0  0  0  0  0  0  0
    4.7955   -1.7838    3.3415 C   0  0  0  0  0  0  0  0  0  0  0  0
    3.4791   -1.2817    3.3688 C   0  0  0  0  0  0  0  0  0  0  0  0
    2.4074   -1.4930    4.2667 N   0  0  0  0  0  0  0  0  0  0  0  0
    0.5639    0.6911    1.9874 C   0  0  0  0  0  0  0  0  0  0  0  0
   -0.6922    0.7115    2.6648 O   0  0  0  0  0  0  0  0  0  0  0  0
   -0.3987    0.9725    4.0030 C   0  0  2  0  0  0  0  0  0  0  0  0
    0.1782    2.2862    4.2568 O   0  0  0  0  0  0  0  0  0  0  0  0
   -0.7861    3.0816    4.9260 C   0  0  2  0  0  0  0  0  0  0  0  0
   -1.0065    4.3249    4.0680 C   0  0  0  0  0  0  0  0  0  0  0  0
   -0.4978    3.5335    6.2343 O   0  0  0  0  0  0  0  0  0  0  0  0
   -0.5843    2.7082    7.4389 C   0  0  1  0  0  0  0  0  0  0  0  0
   -1.5889    1.5026    7.6428 C   0  0  0  0  0  0  0  0  0  0  0  0
   -1.1397    0.2353    7.0551 O   0  0  0  0  0  0  0  0  0  0  0  0
   -0.2318    0.4725    5.9828 C   0  0  1  0  0  0  0  0  0  0  0  0
    1.0456    1.1519    6.5709 C   0  0  0  0  0  0  0  0  0  0  0  0
    2.2104    0.9266    6.2547 O   0  0  0  0  0  0  0  0  0  0  0  0
    0.8077    2.1738    7.6620 C   0  0  0  0  0  0  0  0  0  0  0  0
   -1.4188    1.0316    5.0162 C   0  0  1  0  0  0  0  0  0  0  0  0
   -1.9202    2.3530    4.9929 O   0  0  0  0  0  0  0  0  0  0  0  0
    2.1820   -4.4411    3.7286 C   0  0  0  0  0  0  0  0  0  0  0  0
    2.5865   -5.8179    3.2279 C   0  0  1  0  0  0  0  0  0  0  0  0
    2.8717   -6.3325    1.7938 C   0  0  0  0  0  0  0  0  0  0  0  0
    4.0731   -7.0795    2.4447 C   0  0  1  0  0  0  0  0  0  0  0  0
    5.2985   -7.1544    1.7189 O   0  0  0  0  0  0  0  0  0  0  0  0
    6.4161   -6.5587    2.3977 C   0  0  2  0  0  0  0  0  0  0  0  0
    7.6393   -6.8216    1.4977 C   0  0  0  0  0  0  0  0  0  0  0  0
    6.6524   -7.0789    3.8508 C   0  0  0  0  0  0  0  0  0  0  0  0
    5.9961   -6.2425    4.9968 C   0  0  0  0  0  0  0  0  0  0  0  0
    4.4800   -5.9711    4.8337 C   0  0  2  0  0  0  0  0  0  0  0  0
    4.0771   -5.8942    3.3958 C   0  0  2  0  0  0  0  0  0  0  0  0
    4.7732   -4.8237    2.7289 O   0  0  0  0  0  0  0  0  0  0  0  0
    6.2458   -5.1561    2.5472 O   0  0  0  0  0  0  0  0  0  0  0  0
    3.6144   -4.3323    7.7119 H   0  0  0  0  0  0  0  0  0  0  0  0
    4.3769   -5.8592    7.4179 H   0  0  0  0  0  0  0  0  0  0  0  0
    2.6626   -5.7207    7.0683 H   0  0  0  0  0  0  0  0  0  0  0  0
    4.7133   -3.9871    5.6514 H   0  0  0  0  0  0  0  0  0  0  0  0
    3.2163   -2.2157    5.9760 H   0  0  0  0  0  0  0  0  0  0  0  0
    0.5862   -2.6770    8.2916 H   0  0  0  0  0  0  0  0  0  0  0  0
    2.3157   -2.6503    8.0004 H   0  0  0  0  0  0  0  0  0  0  0  0
    1.3097   -4.0431    7.4723 H   0  0  0  0  0  0  0  0  0  0  0  0
   -0.2317   -3.7252    5.5016 H   0  0  0  0  0  0  0  0  0  0  0  0
   -0.8137   -2.5093    6.6047 H   0  0  0  0  0  0  0  0  0  0  0  0
   -0.4616   -2.2158    3.6755 H   0  0  0  0  0  0  0  0  0  0  0  0
   -1.7146   -1.6679    4.7491 H   0  0  0  0  0  0  0  0  0  0  0  0
    3.5373    0.5382    0.4822 H   0  0  0  0  0  0  0  0  0  0  0  0
    5.8505   -0.3568    0.4035 H   0  0  0  0  0  0  0  0  0  0  0  0
    6.6338   -1.8613    2.2328 H   0  0  0  0  0  0  0  0  0  0  0  0
    5.1420   -2.4250    4.1231 H   0  0  0  0  0  0  0  0  0  0  0  0
    0.8788    1.7214    1.8081 H   0  0  0  0  0  0  0  0  0  0  0  0
    0.3932    0.2625    1.0078 H   0  0  0  0  0  0  0  0  0  0  0  0
   -1.7987    4.9329    4.4974 H   0  0  0  0  0  0  0  0  0  0  0  0
   -1.2592    4.0492    3.0429 H   0  0  0  0  0  0  0  0  0  0  0  0
   -0.0840    4.9070    4.0392 H   0  0  0  0  0  0  0  0  0  0  0  0
   -0.7952    3.4217    8.2301 H   0  0  0  0  0  0  0  0  0  0  0  0
   -1.6994    1.3247    8.7155 H   0  0  0  0  0  0  0  0  0  0  0  0
   -2.5858    1.7724    7.2927 H   0  0  0  0  0  0  0  0  0  0  0  0
    1.5465    2.9744    7.6040 H   0  0  0  0  0  0  0  0  0  0  0  0
    0.8992    1.6907    8.6370 H   0  0  0  0  0  0  0  0  0  0  0  0
   -2.2371    0.3356    4.8457 H   0  0  0  0  0  0  0  0  0  0  0  0
    1.4548   -3.9070    3.1356 H   0  0  0  0  0  0  0  0  0  0  0  0
    2.0811   -6.5935    3.7964 H   0  0  0  0  0  0  0  0  0  0  0  0
    2.1203   -7.0237    1.4240 H   0  0  0  0  0  0  0  0  0  0  0  0
    3.1502   -5.5756    1.0601 H   0  0  0  0  0  0  0  0  0  0  0  0
    3.7900   -8.0121    2.9459 H   0  0  0  0  0  0  0  0  0  0  0  0
    7.4670   -6.4545    0.4862 H   0  0  0  0  0  0  0  0  0  0  0  0
    7.8683   -7.8869    1.4267 H   0  0  0  0  0  0  0  0  0  0  0  0
    8.5346   -6.3264    1.8769 H   0  0  0  0  0  0  0  0  0  0  0  0
    6.3870   -8.1343    3.9204 H   0  0  0  0  0  0  0  0  0  0  0  0
    7.7234   -7.0375    4.0461 H   0  0  0  0  0  0  0  0  0  0  0  0
    6.1687   -6.7528    5.9474 H   0  0  0  0  0  0  0  0  0  0  0  0
    6.5234   -5.2875    5.0729 H   0  0  0  0  0  0  0  0  0  0  0  0
    3.9886   -6.8522    5.2536 H   0  0  0  0  0  0  0  0  0  0  0  0
  1  2  1  0
  1 48  1  0
  1 49  1  0
  1 50  1  0
  2 44  1  0
  2  3  1  0
  2 51  1  1
  3  4  1  0
  3 35  2  0
  4 18  1  0
  4  5  1  0
  4 52  1  1
  5  6  1  0
  5  7  1  0
  6 53  1  0
  6 54  1  0
  6 55  1  0
  7  8  1  0
  7 56  1  0
  7 57  1  0
  9  8  1  6
  8 58  1  0
  8 59  1  0
  9 21  1  0
  9 29  1  0
  9 10  1  0
 10 18  1  0
 10 11  2  0
 11 12  1  0
 11 19  1  0
 12 17  2  0
 12 13  1  0
 13 14  2  0
 13 60  1  0
 14 15  1  0
 14 61  1  0
 15 16  2  0
 15 62  1  0
 16 17  1  0
 16 63  1  0
 17 18  1  0
 19 20  1  0
 19 64  1  0
 19 65  1  0
 21 20  1  6
 21 33  1  0
 21 22  1  0
 22 23  1  0
 23 34  1  0
 23 24  1  6
 23 25  1  0
 24 66  1  0
 24 67  1  0
 24 68  1  0
 25 26  1  0
 26 32  1  0
 26 27  1  0
 26 69  1  1
 27 28  1  0
 27 70  1  0
 27 71  1  0
 29 28  1  1
 29 30  1  0
 29 33  1  0
 30 31  2  0
 30 32  1  0
 32 72  1  0
 32 73  1  0
 33 34  1  0
 33 74  1  6
 35 36  1  0
 35 75  1  0
 36 45  1  0
 36 37  1  0
 36 76  1  1
 37 38  1  0
 37 77  1  0
 37 78  1  0
 38 45  1  0
 38 39  1  0
 38 79  1  1
 39 40  1  0
 40 47  1  0
 40 41  1  6
 40 42  1  0
 41 80  1  0
 41 81  1  0
 41 82  1  0
 42 43  1  0
 42 83  1  0
 42 84  1  0
 43 44  1  0
 43 85  1  0
 43 86  1  0
 44 45  1  0
 44 87  1  1
 45 46  1  6
 46 47  1  0
M  END
>  <i_m_ct_stereo_status>  (16) 
1

>  <s_m_source_file>  (16) 
/var/tmp/pbs.5083858.sched01/tmp89x1fiek/50k1xxx4n.sdf

>  <i_m_source_file_index>  (16) 
2

>  <i_lp_mmshare_version>  (16) 
48012

>  <i_f3d_flags>  (16) 
0

>  <s_epik_input>  (16) 
W0NIMl0xW0NASF0yT1tDQEBdKFtDSDNdKShPTzMpW0NIMl1bQ0gyXVtDQEhdNFtDQEhdKFtDSDNdKUMoPVtDSF1bQ0BASF0xW0NAQF0yMzQpW0NASF0oTihbQ0gzXSlbQ0gyXVtDSDJdNSluKGM2YzdbY0hdW2NIXVtjSF1bY0hdNiljOGM3W0NIMl1PW0NAXTkoW0NAQF0xNTgpW0NASF0yW0NAQF0xM09bQ0gyXVtDQEBIXShbQ0gyXUMzPU8pT1tDQEBdKE85KShPMilbQ0gzXQ==

>  <s_epik_cmdline>  (16) 
J2VwaWtfcHl0aG9uJywgJy1waHQnLCAnMi4wJywgJy1waCcsICc3LjAnLCAnLXRuJywgJzgnLCAnLW1hJywgJzIwMCcsICctaW1hZScsICc8aW5maWxlLm1hZT4nLCAnLW9tYWUnLCAnPG91dGZpbGUubWFlPic=

>  <r_epik_Ionization_Penalty>  (16) 
0.0131419

>  <r_epik_Ionization_Penalty_Charging>  (16) 
0

>  <r_epik_Ionization_Penalty_Neutral>  (16) 
0.0131419

>  <r_epik_State_Penalty>  (16) 
0.00606911

>  <r_epik_Charging_Adjusted_Penalty>  (16) 
0.00606911

>  <i_epik_Tot_Q>  (16) 
0

>  <i_epik_Tot_abs_Q>  (16) 
0

>  <s_epik_Chemistry_Notes>  (16) 
This compound contains an acetal/aminal-like group ( X-CH(R)-Y where X, Y are N, S, or O) that may be acid/base labile, releasing an aldehyde.

>  <s_lp_Force_Field>  (16) 
OPLS3e

>  <r_lp_Energy>  (16) 
192.978

>  <b_lp_Chiralities_Consistent>  (16) 
1

>  <s_lp_Variant>  (16) 
4:0-1

>  <s_i_glide_gridfile>  (16) 
pfpi4k_grid

>  <i_i_glide_lignum>  (16) 
2

>  <i_i_glide_rotatable_bonds>  (16) 
1

>  <r_i_docking_score>  (16) 
-2.20362

>  <r_i_glide_ligand_efficiency>  (16) 
-0.0468855

>  <r_i_glide_ligand_efficiency_sa>  (16) 
-0.169201

>  <r_i_glide_ligand_efficiency_ln>  (16) 
-0.45434

>  <r_i_glide_gscore>  (16) 
-2.20362

>  <r_i_glide_lipo>  (16) 
-0.381549

>  <r_i_glide_hbond>  (16) 
-0.13018

>  <r_i_glide_metal>  (16) 
-0

>  <r_i_glide_rewards>  (16) 
-0.025656

>  <r_i_glide_evdw>  (16) 
-27.5739

>  <r_i_glide_ecoul>  (16) 
-1.99872

>  <r_i_glide_erotb>  (16) 
0.0510286

>  <r_i_glide_esite>  (16) 
-0.0387592

>  <r_i_glide_emodel>  (16) 
-31.6538

>  <r_i_glide_energy>  (16) 
-29.5726

>  <r_i_glide_einternal>  (16) 
2.06135

>  <r_i_glide_intrahb_reward>  (16) 
-0

>  <i_i_glide_confnum>  (16) 
4

>  <i_i_glide_posenum>  (16) 
40

>  <r_i_glide_eff_state_penalty>  (16) 
0

>  <ligand_id>  (16) 
4

>  <original_smiles>  (16) 
CC1C(C2N(C)CCC34c5c(c6ccccc6n52)COC32OC3(C)OC5COC4(C(=O)C5)C2O3)=CC2CC3OC4(C)CCC1C23OO4

>  <smiles>  (16) 
[H]C1=C(C2([H])N(C([H])([H])[H])C([H])([H])C([H])([H])C34c5c(c6c([H])c([H])c([H])c([H])c6n52)C([H])([H])OC32OC3(C([H])([H])[H])OC5([H])C([H])([H])OC4(C(=O)C5([H])[H])C2([H])O3)C([H])(C([H])([H])[H])C2([H])C([H])([H])C([H])([H])C3(C([H])([H])[H])OOC24C([H])(O3)C([H])([H])C14[H]

$$$$
4:0:1
     RDKit          3D

 87 98  0  0  1  0  0  0  0  0999 V2000
    6.0181    0.1387    4.8217 C   0  0  0  0  0  0  0  0  0  0  0  0
    4.6950   -0.4795    4.3393 C   0  0  2  0  0  0  0  0  0  0  0  0
    3.5907   -0.6367    5.4891 C   0  0  0  0  0  0  0  0  0  0  0  0
    3.0035    0.6669    6.1511 C   0  0  2  0  0  0  0  0  0  0  0  0
    3.1538    0.7892    7.6228 N   0  0  0  0  0  0  0  0  0  0  0  0
    4.5565    0.8607    8.0178 C   0  0  0  0  0  0  0  0  0  0  0  0
    2.4463   -0.1461    8.5187 C   0  0  0  0  0  0  0  0  0  0  0  0
    0.9026   -0.0656    8.4335 C   0  0  0  0  0  0  0  0  0  0  0  0
    0.4451    1.3279    7.9601 C   0  0  1  0  0  0  0  0  0  0  0  0
    0.5399    1.2134    6.4240 C   0  0  0  0  0  0  0  0  0  0  0  0
   -0.5967    1.1878    5.5833 C   0  0  0  0  0  0  0  0  0  0  0  0
   -0.1651    1.2261    4.2429 C   0  0  0  0  0  0  0  0  0  0  0  0
   -0.8205    1.3203    2.9903 C   0  0  0  0  0  0  0  0  0  0  0  0
   -0.0433    1.3341    1.8206 C   0  0  0  0  0  0  0  0  0  0  0  0
    1.3585    1.2882    1.8560 C   0  0  0  0  0  0  0  0  0  0  0  0
    2.0332    1.2971    3.0939 C   0  0  0  0  0  0  0  0  0  0  0  0
    1.2737    1.1808    4.2855 C   0  0  0  0  0  0  0  0  0  0  0  0
    1.6428    1.0091    5.6430 N   0  0  0  0  0  0  0  0  0  0  0  0
   -1.9538    1.1503    6.2510 C   0  0  0  0  0  0  0  0  0  0  0  0
   -1.9473    1.0422    7.6670 O   0  0  0  0  0  0  0  0  0  0  0  0
   -1.0004    1.9649    8.1186 C   0  0  2  0  0  0  0  0  0  0  0  0
   -1.3311    3.3601    7.8554 O   0  0  0  0  0  0  0  0  0  0  0  0
   -1.6483    3.9854    9.0921 C   0  0  2  0  0  0  0  0  0  0  0  0
   -3.0601    4.5525    8.9432 C   0  0  0  0  0  0  0  0  0  0  0  0
   -0.8237    5.0394    9.5499 O   0  0  0  0  0  0  0  0  0  0  0  0
    0.4837    4.8599   10.1770 C   0  0  1  0  0  0  0  0  0  0  0  0
    0.9184    3.6125   11.0481 C   0  0  0  0  0  0  0  0  0  0  0  0
    1.3823    2.4694   10.2647 O   0  0  0  0  0  0  0  0  0  0  0  0
    0.7951    2.4934    8.9673 C   0  0  1  0  0  0  0  0  0  0  0  0
    1.3379    3.7567    8.2248 C   0  0  0  0  0  0  0  0  0  0  0  0
    1.6780    3.8363    7.0478 O   0  0  0  0  0  0  0  0  0  0  0  0
    1.4799    5.0077    9.0649 C   0  0  0  0  0  0  0  0  0  0  0  0
   -0.6870    2.1180    9.5172 C   0  0  1  0  0  0  0  0  0  0  0  0
   -1.6335    3.0271   10.0374 O   0  0  0  0  0  0  0  0  0  0  0  0
    3.0992   -1.8671    5.7837 C   0  0  0  0  0  0  0  0  0  0  0  0
    3.6838   -3.1008    5.1038 C   0  0  1  0  0  0  0  0  0  0  0  0
    2.9756   -4.3633    4.5709 C   0  0  0  0  0  0  0  0  0  0  0  0
    3.9097   -4.2031    3.3387 C   0  0  1  0  0  0  0  0  0  0  0  0
    3.3714   -4.4788    2.0496 O   0  0  0  0  0  0  0  0  0  0  0  0
    3.4227   -3.3614    1.1480 C   0  0  2  0  0  0  0  0  0  0  0  0
    2.8975   -3.8944   -0.1996 C   0  0  0  0  0  0  0  0  0  0  0  0
    4.8343   -2.7089    0.9842 C   0  0  0  0  0  0  0  0  0  0  0  0
    5.1489   -1.4951    1.9218 C   0  0  0  0  0  0  0  0  0  0  0  0
    4.9525   -1.7581    3.4395 C   0  0  2  0  0  0  0  0  0  0  0  0
    3.8319   -2.7235    3.6552 C   0  0  2  0  0  0  0  0  0  0  0  0
    2.5826   -2.2548    3.1097 O   0  0  0  0  0  0  0  0  0  0  0  0
    2.5947   -2.2965    1.5899 O   0  0  0  0  0  0  0  0  0  0  0  0
    5.8421    1.1818    5.0919 H   0  0  0  0  0  0  0  0  0  0  0  0
    6.7199    0.1533    3.9796 H   0  0  0  0  0  0  0  0  0  0  0  0
    6.4818   -0.3848    5.6701 H   0  0  0  0  0  0  0  0  0  0  0  0
    4.3690    0.2368    3.6111 H   0  0  0  0  0  0  0  0  0  0  0  0
    3.6359    1.4660    5.7662 H   0  0  0  0  0  0  0  0  0  0  0  0
    4.6445    1.1260    9.0697 H   0  0  0  0  0  0  0  0  0  0  0  0
    5.0638    1.6435    7.4607 H   0  0  0  0  0  0  0  0  0  0  0  0
    5.0955   -0.0725    7.8555 H   0  0  0  0  0  0  0  0  0  0  0  0
    2.7939   -1.1778    8.4444 H   0  0  0  0  0  0  0  0  0  0  0  0
    2.6984    0.1537    9.5368 H   0  0  0  0  0  0  0  0  0  0  0  0
    0.5110   -0.8295    7.7595 H   0  0  0  0  0  0  0  0  0  0  0  0
    0.5130   -0.3313    9.4167 H   0  0  0  0  0  0  0  0  0  0  0  0
   -1.9005    1.3897    2.9173 H   0  0  0  0  0  0  0  0  0  0  0  0
   -0.5650    1.4207    0.8812 H   0  0  0  0  0  0  0  0  0  0  0  0
    1.9554    1.3059    0.9520 H   0  0  0  0  0  0  0  0  0  0  0  0
    3.0872    1.4750    3.0837 H   0  0  0  0  0  0  0  0  0  0  0  0
   -2.5334    2.0307    5.9660 H   0  0  0  0  0  0  0  0  0  0  0  0
   -2.4875    0.2930    5.8498 H   0  0  0  0  0  0  0  0  0  0  0  0
   -3.3916    4.9733    9.8879 H   0  0  0  0  0  0  0  0  0  0  0  0
   -3.7617    3.7816    8.6242 H   0  0  0  0  0  0  0  0  0  0  0  0
   -3.0489    5.3414    8.1923 H   0  0  0  0  0  0  0  0  0  0  0  0
    0.5738    5.7268   10.8172 H   0  0  0  0  0  0  0  0  0  0  0  0
    1.7622    3.8998   11.6791 H   0  0  0  0  0  0  0  0  0  0  0  0
    0.1233    3.3322   11.7387 H   0  0  0  0  0  0  0  0  0  0  0  0
    1.2765    5.8960    8.4658 H   0  0  0  0  0  0  0  0  0  0  0  0
    2.4985    5.0753    9.4436 H   0  0  0  0  0  0  0  0  0  0  0  0
   -0.7269    1.1923   10.0844 H   0  0  0  0  0  0  0  0  0  0  0  0
    2.3107   -2.0546    6.5074 H   0  0  0  0  0  0  0  0  0  0  0  0
    4.6484   -3.3645    5.5368 H   0  0  0  0  0  0  0  0  0  0  0  0
    3.2121   -5.2537    5.1472 H   0  0  0  0  0  0  0  0  0  0  0  0
    1.9122   -4.2461    4.3630 H   0  0  0  0  0  0  0  0  0  0  0  0
    4.9224   -4.5794    3.5072 H   0  0  0  0  0  0  0  0  0  0  0  0
    1.9198   -4.3579   -0.0884 H   0  0  0  0  0  0  0  0  0  0  0  0
    3.5579   -4.6511   -0.6300 H   0  0  0  0  0  0  0  0  0  0  0  0
    2.7886   -3.1036   -0.9427 H   0  0  0  0  0  0  0  0  0  0  0  0
    5.6147   -3.4657    1.0552 H   0  0  0  0  0  0  0  0  0  0  0  0
    4.9106   -2.3154   -0.0318 H   0  0  0  0  0  0  0  0  0  0  0  0
    6.1787   -1.1729    1.7590 H   0  0  0  0  0  0  0  0  0  0  0  0
    4.5275   -0.6532    1.5940 H   0  0  0  0  0  0  0  0  0  0  0  0
    5.8617   -2.2564    3.7860 H   0  0  0  0  0  0  0  0  0  0  0  0
  1  2  1  0
  1 48  1  0
  1 49  1  0
  1 50  1  0
  2 44  1  0
  2  3  1  0
  2 51  1  6
  3  4  1  0
  3 35  2  0
  4 18  1  0
  4  5  1  0
  4 52  1  6
  5  6  1  0
  5  7  1  0
  6 53  1  0
  6 54  1  0
  6 55  1  0
  7  8  1  0
  7 56  1  0
  7 57  1  0
  9  8  1  1
  8 58  1  0
  8 59  1  0
  9 21  1  0
  9 29  1  0
  9 10  1  0
 10 18  1  0
 10 11  2  0
 11 12  1  0
 11 19  1  0
 12 17  2  0
 12 13  1  0
 13 14  2  0
 13 60  1  0
 14 15  1  0
 14 61  1  0
 15 16  2  0
 15 62  1  0
 16 17  1  0
 16 63  1  0
 17 18  1  0
 19 20  1  0
 19 64  1  0
 19 65  1  0
 21 20  1  1
 21 33  1  0
 21 22  1  0
 22 23  1  0
 23 34  1  0
 23 24  1  6
 23 25  1  0
 24 66  1  0
 24 67  1  0
 24 68  1  0
 25 26  1  0
 26 32  1  0
 26 27  1  0
 26 69  1  1
 27 28  1  0
 27 70  1  0
 27 71  1  0
 29 28  1  1
 29 30  1  0
 29 33  1  0
 30 31  2  0
 30 32  1  0
 32 72  1  0
 32 73  1  0
 33 34  1  0
 33 74  1  1
 35 36  1  0
 35 75  1  0
 36 45  1  0
 36 37  1  0
 36 76  1  1
 37 38  1  0
 37 77  1  0
 37 78  1  0
 38 45  1  0
 38 39  1  0
 38 79  1  1
 39 40  1  0
 40 47  1  0
 40 41  1  6
 40 42  1  0
 41 80  1  0
 41 81  1  0
 41 82  1  0
 42 43  1  0
 42 83  1  0
 42 84  1  0
 43 44  1  0
 43 85  1  0
 43 86  1  0
 44 45  1  0
 44 87  1  1
 45 46  1  6
 46 47  1  0
M  END
>  <i_m_ct_stereo_status>  (17) 
1

>  <s_m_source_file>  (17) 
/var/tmp/pbs.5083858.sched01/tmp89x1fiek/50k1xxx4n.sdf

>  <i_m_source_file_index>  (17) 
2

>  <i_lp_mmshare_version>  (17) 
48012

>  <i_f3d_flags>  (17) 
0

>  <s_epik_input>  (17) 
W0NIMl0xW0NASF0yT1tDQEBdKFtDSDNdKShPTzMpW0NIMl1bQ0gyXVtDQEhdNFtDQEhdKFtDSDNdKUMoPVtDSF1bQ0BASF0xW0NAQF0yMzQpW0NASF0oTihbQ0gzXSlbQ0gyXVtDSDJdNSluKGM2YzdbY0hdW2NIXVtjSF1bY0hdNiljOGM3W0NIMl1PW0NAXTkoW0NAQF0xNTgpW0NASF0yW0NAQF0xM09bQ0gyXVtDQEBIXShbQ0gyXUMzPU8pT1tDQEBdKE85KShPMilbQ0gzXQ==

>  <s_epik_cmdline>  (17) 
J2VwaWtfcHl0aG9uJywgJy1waHQnLCAnMi4wJywgJy1waCcsICc3LjAnLCAnLXRuJywgJzgnLCAnLW1hJywgJzIwMCcsICctaW1hZScsICc8aW5maWxlLm1hZT4nLCAnLW9tYWUnLCAnPG91dGZpbGUubWFlPic=

>  <r_epik_Ionization_Penalty>  (17) 
0.0131419

>  <r_epik_Ionization_Penalty_Charging>  (17) 
0

>  <r_epik_Ionization_Penalty_Neutral>  (17) 
0.0131419

>  <r_epik_State_Penalty>  (17) 
0.00606911

>  <r_epik_Charging_Adjusted_Penalty>  (17) 
0.00606911

>  <i_epik_Tot_Q>  (17) 
0

>  <i_epik_Tot_abs_Q>  (17) 
0

>  <s_epik_Chemistry_Notes>  (17) 
This compound contains an acetal/aminal-like group ( X-CH(R)-Y where X, Y are N, S, or O) that may be acid/base labile, releasing an aldehyde.

>  <s_lp_Force_Field>  (17) 
OPLS3e

>  <r_lp_Energy>  (17) 
192.978

>  <b_lp_Chiralities_Consistent>  (17) 
1

>  <s_lp_Variant>  (17) 
4:0-1

>  <s_i_glide_gridfile>  (17) 
pfpi4k_grid

>  <i_i_glide_lignum>  (17) 
2

>  <i_i_glide_rotatable_bonds>  (17) 
1

>  <r_i_docking_score>  (17) 
-1.80582

>  <r_i_glide_ligand_efficiency>  (17) 
-0.0384218

>  <r_i_glide_ligand_efficiency_sa>  (17) 
-0.138657

>  <r_i_glide_ligand_efficiency_ln>  (17) 
-0.372323

>  <r_i_glide_gscore>  (17) 
-1.80582

>  <r_i_glide_lipo>  (17) 
-0.411339

>  <r_i_glide_hbond>  (17) 
-0.141595

>  <r_i_glide_metal>  (17) 
-0

>  <r_i_glide_rewards>  (17) 
0

>  <r_i_glide_evdw>  (17) 
-24.2861

>  <r_i_glide_ecoul>  (17) 
-0.392216

>  <r_i_glide_erotb>  (17) 
0.0510286

>  <r_i_glide_esite>  (17) 
-0.0307794

>  <r_i_glide_emodel>  (17) 
-24.6246

>  <r_i_glide_energy>  (17) 
-24.6783

>  <r_i_glide_einternal>  (17) 
2.93821

>  <r_i_glide_intrahb_reward>  (17) 
-0

>  <i_i_glide_confnum>  (17) 
4

>  <i_i_glide_posenum>  (17) 
33

>  <r_i_glide_eff_state_penalty>  (17) 
0

>  <ligand_id>  (17) 
4

>  <original_smiles>  (17) 
CC1C(C2N(C)CCC34c5c(c6ccccc6n52)COC32OC3(C)OC5COC4(C(=O)C5)C2O3)=CC2CC3OC4(C)CCC1C23OO4

>  <smiles>  (17) 
[H]C1=C(C2([H])N(C([H])([H])[H])C([H])([H])C([H])([H])C34c5c(c6c([H])c([H])c([H])c([H])c6n52)C([H])([H])OC32OC3(C([H])([H])[H])OC5([H])C([H])([H])OC4(C(=O)C5([H])[H])C2([H])O3)C([H])(C([H])([H])[H])C2([H])C([H])([H])C([H])([H])C3(C([H])([H])[H])OOC24C([H])(O3)C([H])([H])C14[H]

$$$$
4:0:2
     RDKit          3D

 87 98  0  0  1  0  0  0  0  0999 V2000
    2.4517   -1.9668    9.4273 C   0  0  0  0  0  0  0  0  0  0  0  0
    1.6562   -0.9493    8.6038 C   0  0  2  0  0  0  0  0  0  0  0  0
    2.2365   -0.5352    7.1802 C   0  0  0  0  0  0  0  0  0  0  0  0
    2.1953   -1.5585    5.9835 C   0  0  2  0  0  0  0  0  0  0  0  0
    3.3216   -2.5375    5.8417 N   0  0  0  0  0  0  0  0  0  0  0  0
    3.4633   -3.5092    6.9014 C   0  0  0  0  0  0  0  0  0  0  0  0
    4.6621   -2.0042    5.5765 C   0  0  0  0  0  0  0  0  0  0  0  0
    4.8025   -1.3390    4.1870 C   0  0  0  0  0  0  0  0  0  0  0  0
    3.7387   -1.8741    3.2085 C   0  0  1  0  0  0  0  0  0  0  0  0
    2.4996   -1.0140    3.5362 C   0  0  0  0  0  0  0  0  0  0  0  0
    1.9957   -0.0194    2.6473 C   0  0  0  0  0  0  0  0  0  0  0  0
    0.7939    0.4778    3.1804 C   0  0  0  0  0  0  0  0  0  0  0  0
   -0.1709    1.3950    2.7373 C   0  0  0  0  0  0  0  0  0  0  0  0
   -1.3004    1.7133    3.5641 C   0  0  0  0  0  0  0  0  0  0  0  0
   -1.4340    1.0991    4.8267 C   0  0  0  0  0  0  0  0  0  0  0  0
   -0.4644    0.1706    5.2924 C   0  0  0  0  0  0  0  0  0  0  0  0
    0.6595   -0.1321    4.4611 C   0  0  0  0  0  0  0  0  0  0  0  0
    1.7922   -0.9310    4.6886 N   0  0  0  0  0  0  0  0  0  0  0  0
    2.8381    0.2408    1.3967 C   0  0  0  0  0  0  0  0  0  0  0  0
    4.0453   -0.4548    1.2696 O   0  0  0  0  0  0  0  0  0  0  0  0
    3.7763   -1.7836    1.6366 C   0  0  2  0  0  0  0  0  0  0  0  0
    2.8556   -2.4814    0.7448 O   0  0  0  0  0  0  0  0  0  0  0  0
    3.5827   -3.4601    0.0386 C   0  0  2  0  0  0  0  0  0  0  0  0
    3.3839   -3.1662   -1.4623 C   0  0  0  0  0  0  0  0  0  0  0  0
    3.2480   -4.8333    0.2235 O   0  0  0  0  0  0  0  0  0  0  0  0
    3.6470   -5.6255    1.3809 C   0  0  1  0  0  0  0  0  0  0  0  0
    4.9655   -5.4165    2.2309 C   0  0  0  0  0  0  0  0  0  0  0  0
    4.8633   -4.3739    3.2497 O   0  0  0  0  0  0  0  0  0  0  0  0
    3.8764   -3.4114    2.8761 C   0  0  1  0  0  0  0  0  0  0  0  0
    2.4920   -4.1462    2.8748 C   0  0  0  0  0  0  0  0  0  0  0  0
    1.4142   -3.7032    3.2862 O   0  0  0  0  0  0  0  0  0  0  0  0
    2.4844   -5.5628    2.3234 C   0  0  0  0  0  0  0  0  0  0  0  0
    4.7817   -2.8020    1.6806 C   0  0  1  0  0  0  0  0  0  0  0  0
    4.8827   -3.3218    0.3556 O   0  0  0  0  0  0  0  0  0  0  0  0
    2.5501    0.7812    6.9443 C   0  0  0  0  0  0  0  0  0  0  0  0
    2.5182    1.8127    8.0808 C   0  0  1  0  0  0  0  0  0  0  0  0
    2.0190    3.2642    8.1326 C   0  0  0  0  0  0  0  0  0  0  0  0
    1.3970    2.8855    9.4969 C   0  0  1  0  0  0  0  0  0  0  0  0
    0.1140    3.4059    9.8524 O   0  0  0  0  0  0  0  0  0  0  0  0
   -0.8749    2.4084   10.0748 C   0  0  2  0  0  0  0  0  0  0  0  0
   -2.1511    3.1708   10.5247 C   0  0  0  0  0  0  0  0  0  0  0  0
   -0.4843    1.3124   11.1342 C   0  0  0  0  0  0  0  0  0  0  0  0
    0.1580    0.0145   10.5656 C   0  0  0  0  0  0  0  0  0  0  0  0
    1.3581    0.2383    9.6045 C   0  0  2  0  0  0  0  0  0  0  0  0
    1.2493    1.5020    8.8767 C   0  0  2  0  0  0  0  0  0  0  0  0
    0.0783    1.5306    8.0531 O   0  0  0  0  0  0  0  0  0  0  0  0
   -1.1795    1.6831    8.9001 O   0  0  0  0  0  0  0  0  0  0  0  0
    2.2760   -2.9659    9.0329 H   0  0  0  0  0  0  0  0  0  0  0  0
    2.2080   -1.9920   10.4787 H   0  0  0  0  0  0  0  0  0  0  0  0
    3.5302   -1.7195    9.3553 H   0  0  0  0  0  0  0  0  0  0  0  0
    0.6845   -1.4039    8.3741 H   0  0  0  0  0  0  0  0  0  0  0  0
    1.3363   -2.1720    6.2289 H   0  0  0  0  0  0  0  0  0  0  0  0
    4.0631   -4.3628    6.6396 H   0  0  0  0  0  0  0  0  0  0  0  0
    2.4664   -3.8774    7.1754 H   0  0  0  0  0  0  0  0  0  0  0  0
    3.9163   -3.0299    7.7586 H   0  0  0  0  0  0  0  0  0  0  0  0
    5.0588   -1.3704    6.3735 H   0  0  0  0  0  0  0  0  0  0  0  0
    5.3072   -2.8810    5.5492 H   0  0  0  0  0  0  0  0  0  0  0  0
    4.7343   -0.2599    4.2810 H   0  0  0  0  0  0  0  0  0  0  0  0
    5.8190   -1.5415    3.8452 H   0  0  0  0  0  0  0  0  0  0  0  0
   -0.0724    1.8771    1.7802 H   0  0  0  0  0  0  0  0  0  0  0  0
   -2.0311    2.4087    3.2063 H   0  0  0  0  0  0  0  0  0  0  0  0
   -2.2674    1.3373    5.4554 H   0  0  0  0  0  0  0  0  0  0  0  0
   -0.5445   -0.2754    6.2466 H   0  0  0  0  0  0  0  0  0  0  0  0
    2.2115    0.0560    0.5057 H   0  0  0  0  0  0  0  0  0  0  0  0
    3.0525    1.3220    1.3585 H   0  0  0  0  0  0  0  0  0  0  0  0
    3.9888   -3.8404   -2.0566 H   0  0  0  0  0  0  0  0  0  0  0  0
    3.6482   -2.1341   -1.6839 H   0  0  0  0  0  0  0  0  0  0  0  0
    2.3349   -3.3130   -1.7171 H   0  0  0  0  0  0  0  0  0  0  0  0
    3.6856   -6.6399    0.9884 H   0  0  0  0  0  0  0  0  0  0  0  0
    5.1828   -6.3380    2.7757 H   0  0  0  0  0  0  0  0  0  0  0  0
    5.8226   -5.2569    1.5800 H   0  0  0  0  0  0  0  0  0  0  0  0
    1.5439   -5.7623    1.8109 H   0  0  0  0  0  0  0  0  0  0  0  0
    2.5842   -6.2628    3.1432 H   0  0  0  0  0  0  0  0  0  0  0  0
    5.7680   -2.4468    1.9859 H   0  0  0  0  0  0  0  0  0  0  0  0
    2.8537    1.1560    5.9852 H   0  0  0  0  0  0  0  0  0  0  0  0
    3.4161    1.7023    8.6783 H   0  0  0  0  0  0  0  0  0  0  0  0
    2.8265    4.0030    8.2364 H   0  0  0  0  0  0  0  0  0  0  0  0
    1.2998    3.5584    7.3567 H   0  0  0  0  0  0  0  0  0  0  0  0
    2.1118    2.8779   10.3298 H   0  0  0  0  0  0  0  0  0  0  0  0
   -2.4168    3.9296    9.7897 H   0  0  0  0  0  0  0  0  0  0  0  0
   -2.0002    3.6774   11.4775 H   0  0  0  0  0  0  0  0  0  0  0  0
   -3.0019    2.5138   10.6422 H   0  0  0  0  0  0  0  0  0  0  0  0
    0.1447    1.7451   11.9130 H   0  0  0  0  0  0  0  0  0  0  0  0
   -1.3834    0.9761   11.6497 H   0  0  0  0  0  0  0  0  0  0  0  0
    0.4794   -0.6286   11.3910 H   0  0  0  0  0  0  0  0  0  0  0  0
   -0.6072   -0.5555   10.0338 H   0  0  0  0  0  0  0  0  0  0  0  0
    2.2388    0.3250   10.2604 H   0  0  0  0  0  0  0  0  0  0  0  0
  1  2  1  0
  1 48  1  0
  1 49  1  0
  1 50  1  0
  2 44  1  0
  2  3  1  0
  2 51  1  6
  3  4  1  0
  3 35  2  0
  4 18  1  0
  4  5  1  0
  4 52  1  1
  5  6  1  0
  5  7  1  0
  6 53  1  0
  6 54  1  0
  6 55  1  0
  7  8  1  0
  7 56  1  0
  7 57  1  0
  9  8  1  1
  8 58  1  0
  8 59  1  0
  9 21  1  0
  9 29  1  0
  9 10  1  0
 10 18  1  0
 10 11  2  0
 11 12  1  0
 11 19  1  0
 12 17  2  0
 12 13  1  0
 13 14  2  0
 13 60  1  0
 14 15  1  0
 14 61  1  0
 15 16  2  0
 15 62  1  0
 16 17  1  0
 16 63  1  0
 17 18  1  0
 19 20  1  0
 19 64  1  0
 19 65  1  0
 21 20  1  1
 21 33  1  0
 21 22  1  0
 22 23  1  0
 23 34  1  0
 23 24  1  6
 23 25  1  0
 24 66  1  0
 24 67  1  0
 24 68  1  0
 25 26  1  0
 26 32  1  0
 26 27  1  0
 26 69  1  6
 27 28  1  0
 27 70  1  0
 27 71  1  0
 29 28  1  1
 29 30  1  0
 29 33  1  0
 30 31  2  0
 30 32  1  0
 32 72  1  0
 32 73  1  0
 33 34  1  0
 33 74  1  1
 35 36  1  0
 35 75  1  0
 36 45  1  0
 36 37  1  0
 36 76  1  1
 37 38  1  0
 37 77  1  0
 37 78  1  0
 38 45  1  0
 38 39  1  0
 38 79  1  1
 39 40  1  0
 40 47  1  0
 40 41  1  1
 40 42  1  0
 41 80  1  0
 41 81  1  0
 41 82  1  0
 42 43  1  0
 42 83  1  0
 42 84  1  0
 43 44  1  0
 43 85  1  0
 43 86  1  0
 44 45  1  0
 44 87  1  1
 45 46  1  6
 46 47  1  0
M  END
>  <i_m_ct_stereo_status>  (18) 
1

>  <s_m_source_file>  (18) 
/var/tmp/pbs.5083858.sched01/tmp89x1fiek/50k1xxx4n.sdf

>  <i_m_source_file_index>  (18) 
2

>  <i_lp_mmshare_version>  (18) 
48012

>  <i_f3d_flags>  (18) 
0

>  <s_epik_input>  (18) 
W0NIMl0xW0NASF0yT1tDQEBdKFtDSDNdKShPTzMpW0NIMl1bQ0gyXVtDQEhdNFtDQEhdKFtDSDNdKUMoPVtDSF1bQ0BASF0xW0NAQF0yMzQpW0NASF0oTihbQ0gzXSlbQ0gyXVtDSDJdNSluKGM2YzdbY0hdW2NIXVtjSF1bY0hdNiljOGM3W0NIMl1PW0NAXTkoW0NAQF0xNTgpW0NASF0yW0NAQF0xM09bQ0gyXVtDQEBIXShbQ0gyXUMzPU8pT1tDQEBdKE85KShPMilbQ0gzXQ==

>  <s_epik_cmdline>  (18) 
J2VwaWtfcHl0aG9uJywgJy1waHQnLCAnMi4wJywgJy1waCcsICc3LjAnLCAnLXRuJywgJzgnLCAnLW1hJywgJzIwMCcsICctaW1hZScsICc8aW5maWxlLm1hZT4nLCAnLW9tYWUnLCAnPG91dGZpbGUubWFlPic=

>  <r_epik_Ionization_Penalty>  (18) 
0.0131419

>  <r_epik_Ionization_Penalty_Charging>  (18) 
0

>  <r_epik_Ionization_Penalty_Neutral>  (18) 
0.0131419

>  <r_epik_State_Penalty>  (18) 
0.00606911

>  <r_epik_Charging_Adjusted_Penalty>  (18) 
0.00606911

>  <i_epik_Tot_Q>  (18) 
0

>  <i_epik_Tot_abs_Q>  (18) 
0

>  <s_epik_Chemistry_Notes>  (18) 
This compound contains an acetal/aminal-like group ( X-CH(R)-Y where X, Y are N, S, or O) that may be acid/base labile, releasing an aldehyde.

>  <s_lp_Force_Field>  (18) 
OPLS3e

>  <r_lp_Energy>  (18) 
192.978

>  <b_lp_Chiralities_Consistent>  (18) 
1

>  <s_lp_Variant>  (18) 
4:0-1

>  <s_i_glide_gridfile>  (18) 
pfpi4k_grid

>  <i_i_glide_lignum>  (18) 
2

>  <i_i_glide_rotatable_bonds>  (18) 
1

>  <r_i_docking_score>  (18) 
-1.31525

>  <r_i_glide_ligand_efficiency>  (18) 
-0.0279841

>  <r_i_glide_ligand_efficiency_sa>  (18) 
-0.10099

>  <r_i_glide_ligand_efficiency_ln>  (18) 
-0.271178

>  <r_i_glide_gscore>  (18) 
-1.31525

>  <r_i_glide_lipo>  (18) 
-0.147677

>  <r_i_glide_hbond>  (18) 
0

>  <r_i_glide_metal>  (18) 
-0

>  <r_i_glide_rewards>  (18) 
-0.0130228

>  <r_i_glide_evdw>  (18) 
-28.6422

>  <r_i_glide_ecoul>  (18) 
1.84301

>  <r_i_glide_erotb>  (18) 
0.0510286

>  <r_i_glide_esite>  (18) 
-0.0499216

>  <r_i_glide_emodel>  (18) 
-25.7253

>  <r_i_glide_energy>  (18) 
-26.7992

>  <r_i_glide_einternal>  (18) 
3.23496

>  <r_i_glide_intrahb_reward>  (18) 
-0

>  <i_i_glide_confnum>  (18) 
4

>  <i_i_glide_posenum>  (18) 
8

>  <r_i_glide_eff_state_penalty>  (18) 
0

>  <ligand_id>  (18) 
4

>  <original_smiles>  (18) 
CC1C(C2N(C)CCC34c5c(c6ccccc6n52)COC32OC3(C)OC5COC4(C(=O)C5)C2O3)=CC2CC3OC4(C)CCC1C23OO4

>  <smiles>  (18) 
[H]C1=C(C2([H])N(C([H])([H])[H])C([H])([H])C([H])([H])C34c5c(c6c([H])c([H])c([H])c([H])c6n52)C([H])([H])OC32OC3(C([H])([H])[H])OC5([H])C([H])([H])OC4(C(=O)C5([H])[H])C2([H])O3)C([H])(C([H])([H])[H])C2([H])C([H])([H])C([H])([H])C3(C([H])([H])[H])OOC24C([H])(O3)C([H])([H])C14[H]

$$$$
4:1:0
     RDKit          3D

 88 99  0  0  1  0  0  0  0  0999 V2000
    1.1825   -3.1565    3.9344 C   0  0  0  0  0  0  0  0  0  0  0  0
    1.1763   -3.9675    5.2506 C   0  0  2  0  0  0  0  0  0  0  0  0
    2.3720   -3.5292    6.1719 C   0  0  0  0  0  0  0  0  0  0  0  0
    2.2622   -2.0794    6.7865 C   0  0  2  0  0  0  0  0  0  0  0  0
    3.5907   -1.4167    7.0042 N   0  0  2  0  0  0  0  0  0  0  0  0
    4.3136   -1.7533    8.2730 C   0  0  0  0  0  0  0  0  0  0  0  0
    3.5830    0.0522    6.7276 C   0  0  0  0  0  0  0  0  0  0  0  0
    2.7170    0.9205    7.6822 C   0  0  0  0  0  0  0  0  0  0  0  0
    1.1846    0.6570    7.5658 C   0  0  1  0  0  0  0  0  0  0  0  0
    0.9875   -0.6551    8.3438 C   0  0  0  0  0  0  0  0  0  0  0  0
    0.4862   -0.6899    9.6635 C   0  0  0  0  0  0  0  0  0  0  0  0
    0.5200   -2.0242   10.1203 C   0  0  0  0  0  0  0  0  0  0  0  0
    0.1212   -2.6792   11.3057 C   0  0  0  0  0  0  0  0  0  0  0  0
    0.3791   -4.0463   11.4854 C   0  0  0  0  0  0  0  0  0  0  0  0
    1.0417   -4.7757   10.4846 C   0  0  0  0  0  0  0  0  0  0  0  0
    1.4449   -4.1467    9.2896 C   0  0  0  0  0  0  0  0  0  0  0  0
    1.1689   -2.7843    9.0776 C   0  0  0  0  0  0  0  0  0  0  0  0
    1.4550   -1.8922    8.0202 N   0  0  0  0  0  0  0  0  0  0  0  0
    0.1057    0.6454   10.3055 C   0  0  0  0  0  0  0  0  0  0  0  0
    0.4596    1.8143    9.5773 O   0  0  0  0  0  0  0  0  0  0  0  0
    0.0890    1.5875    8.2465 C   0  0  2  0  0  0  0  0  0  0  0  0
   -1.3497    1.4839    8.0173 O   0  0  0  0  0  0  0  0  0  0  0  0
   -1.7679    2.6382    7.3025 C   0  0  2  0  0  0  0  0  0  0  0  0
   -2.8689    3.2968    8.1372 C   0  0  0  0  0  0  0  0  0  0  0  0
   -2.2828    2.4757    5.9931 O   0  0  0  0  0  0  0  0  0  0  0  0
   -1.4845    2.2517    4.7795 C   0  0  1  0  0  0  0  0  0  0  0  0
   -0.0023    2.7736    4.5618 C   0  0  0  0  0  0  0  0  0  0  0  0
    1.0249    1.9120    5.1569 O   0  0  0  0  0  0  0  0  0  0  0  0
    0.4870    1.2090    6.2697 C   0  0  1  0  0  0  0  0  0  0  0  0
   -0.6188    0.2353    5.7397 C   0  0  0  0  0  0  0  0  0  0  0  0
   -0.9007   -0.8842    6.1618 O   0  0  0  0  0  0  0  0  0  0  0  0
   -1.4492    0.7570    4.5881 C   0  0  0  0  0  0  0  0  0  0  0  0
    0.3722    2.5434    7.1966 C   0  0  1  0  0  0  0  0  0  0  0  0
   -0.7045    3.4570    7.2130 O   0  0  0  0  0  0  0  0  0  0  0  0
    3.4484   -4.3695    6.2993 C   0  0  0  0  0  0  0  0  0  0  0  0
    3.5018   -5.6678    5.5047 C   0  0  1  0  0  0  0  0  0  0  0  0
    4.0183   -7.0775    5.9000 C   0  0  0  0  0  0  0  0  0  0  0  0
    2.7443   -7.5916    5.1688 C   0  0  1  0  0  0  0  0  0  0  0  0
    2.0288   -8.7001    5.7016 O   0  0  0  0  0  0  0  0  0  0  0  0
    0.6784   -8.4074    6.0941 C   0  0  2  0  0  0  0  0  0  0  0  0
    0.0910   -9.7455    6.5902 C   0  0  0  0  0  0  0  0  0  0  0  0
   -0.2165   -7.7645    4.9824 C   0  0  0  0  0  0  0  0  0  0  0  0
   -0.2671   -6.2049    4.9489 C   0  0  0  0  0  0  0  0  0  0  0  0
    1.1071   -5.5066    4.8653 C   0  0  2  0  0  0  0  0  0  0  0  0
    2.1281   -6.2754    5.6304 C   0  0  2  0  0  0  0  0  0  0  0  0
    1.7485   -6.4426    7.0125 O   0  0  0  0  0  0  0  0  0  0  0  0
    0.6381   -7.4851    7.1702 O   0  0  0  0  0  0  0  0  0  0  0  0
    1.1537   -2.0795    4.0775 H   0  0  0  0  0  0  0  0  0  0  0  0
    0.3166   -3.4036    3.3205 H   0  0  0  0  0  0  0  0  0  0  0  0
    2.0712   -3.3832    3.3367 H   0  0  0  0  0  0  0  0  0  0  0  0
    0.2679   -3.7234    5.8017 H   0  0  0  0  0  0  0  0  0  0  0  0
    1.7741   -1.4908    6.0113 H   0  0  0  0  0  0  0  0  0  0  0  0
    3.8411   -1.3059    9.1495 H   0  0  0  0  0  0  0  0  0  0  0  0
    5.3382   -1.3765    8.2226 H   0  0  0  0  0  0  0  0  0  0  0  0
    4.3777   -2.8236    8.4656 H   0  0  0  0  0  0  0  0  0  0  0  0
    4.6116    0.4103    6.7994 H   0  0  0  0  0  0  0  0  0  0  0  0
    3.2881    0.2377    5.6907 H   0  0  0  0  0  0  0  0  0  0  0  0
    3.0465    0.8102    8.7219 H   0  0  0  0  0  0  0  0  0  0  0  0
    2.9825    1.9510    7.4337 H   0  0  0  0  0  0  0  0  0  0  0  0
   -0.3581   -2.1040   12.0821 H   0  0  0  0  0  0  0  0  0  0  0  0
    0.0909   -4.5235   12.4100 H   0  0  0  0  0  0  0  0  0  0  0  0
    1.2723   -5.8210   10.6315 H   0  0  0  0  0  0  0  0  0  0  0  0
    1.9733   -4.7106    8.5458 H   0  0  0  0  0  0  0  0  0  0  0  0
   -0.9693    0.6757   10.4999 H   0  0  0  0  0  0  0  0  0  0  0  0
    0.5790    0.7130   11.2863 H   0  0  0  0  0  0  0  0  0  0  0  0
   -3.1729    4.2356    7.6800 H   0  0  0  0  0  0  0  0  0  0  0  0
   -2.5217    3.4876    9.1518 H   0  0  0  0  0  0  0  0  0  0  0  0
   -3.7302    2.6285    8.1845 H   0  0  0  0  0  0  0  0  0  0  0  0
   -2.0883    2.6821    3.9790 H   0  0  0  0  0  0  0  0  0  0  0  0
    0.2102    2.7953    3.4903 H   0  0  0  0  0  0  0  0  0  0  0  0
    0.1007    3.8078    4.8920 H   0  0  0  0  0  0  0  0  0  0  0  0
   -2.4573    0.3405    4.6091 H   0  0  0  0  0  0  0  0  0  0  0  0
   -0.9846    0.4898    3.6381 H   0  0  0  0  0  0  0  0  0  0  0  0
    1.2943    3.1060    7.3346 H   0  0  0  0  0  0  0  0  0  0  0  0
    4.3417   -4.1612    6.8642 H   0  0  0  0  0  0  0  0  0  0  0  0
    3.7723   -5.4601    4.4710 H   0  0  0  0  0  0  0  0  0  0  0  0
    4.9297   -7.3732    5.3843 H   0  0  0  0  0  0  0  0  0  0  0  0
    4.0562   -7.3058    6.9663 H   0  0  0  0  0  0  0  0  0  0  0  0
    2.8505   -7.6361    4.0796 H   0  0  0  0  0  0  0  0  0  0  0  0
    0.7207  -10.1900    7.3615 H   0  0  0  0  0  0  0  0  0  0  0  0
    0.0168  -10.4758    5.7842 H   0  0  0  0  0  0  0  0  0  0  0  0
   -0.9049   -9.6214    7.0137 H   0  0  0  0  0  0  0  0  0  0  0  0
    0.0461   -8.1776    4.0109 H   0  0  0  0  0  0  0  0  0  0  0  0
   -1.2416   -8.0881    5.1536 H   0  0  0  0  0  0  0  0  0  0  0  0
   -0.8640   -5.8859    4.0986 H   0  0  0  0  0  0  0  0  0  0  0  0
   -0.7834   -5.8457    5.8406 H   0  0  0  0  0  0  0  0  0  0  0  0
    1.4031   -5.5991    3.8155 H   0  0  0  0  0  0  0  0  0  0  0  0
    4.1699   -1.7886    6.2635 H   0  0  0  0  0  0  0  0  0  0  0  0
  1  2  1  0
  1 48  1  0
  1 49  1  0
  1 50  1  0
  2 44  1  0
  2  3  1  0
  2 51  1  1
  3  4  1  0
  3 35  2  0
  4 18  1  0
  4  5  1  0
  4 52  1  6
  5  6  1  0
  5  7  1  0
  5 88  1  6
  6 53  1  0
  6 54  1  0
  6 55  1  0
  7  8  1  0
  7 56  1  0
  7 57  1  0
  9  8  1  6
  8 58  1  0
  8 59  1  0
  9 21  1  0
  9 29  1  0
  9 10  1  0
 10 18  1  0
 10 11  2  0
 11 12  1  0
 11 19  1  0
 12 17  2  0
 12 13  1  0
 13 14  2  0
 13 60  1  0
 14 15  1  0
 14 61  1  0
 15 16  2  0
 15 62  1  0
 16 17  1  0
 16 63  1  0
 17 18  1  0
 19 20  1  0
 19 64  1  0
 19 65  1  0
 21 20  1  1
 21 33  1  0
 21 22  1  0
 22 23  1  0
 23 34  1  0
 23 24  1  1
 23 25  1  0
 24 66  1  0
 24 67  1  0
 24 68  1  0
 25 26  1  0
 26 32  1  0
 26 27  1  0
 26 69  1  6
 27 28  1  0
 27 70  1  0
 27 71  1  0
 29 28  1  6
 29 30  1  0
 29 33  1  0
 30 31  2  0
 30 32  1  0
 32 72  1  0
 32 73  1  0
 33 34  1  0
 33 74  1  1
 35 36  1  0
 35 75  1  0
 36 45  1  0
 36 37  1  0
 36 76  1  6
 37 38  1  0
 37 77  1  0
 37 78  1  0
 38 45  1  0
 38 39  1  0
 38 79  1  6
 39 40  1  0
 40 47  1  0
 40 41  1  1
 40 42  1  0
 41 80  1  0
 41 81  1  0
 41 82  1  0
 42 43  1  0
 42 83  1  0
 42 84  1  0
 43 44  1  0
 43 85  1  0
 43 86  1  0
 44 45  1  0
 44 87  1  6
 45 46  1  1
 46 47  1  0
M  CHG  1   5   1
M  END
>  <i_m_ct_stereo_status>  (19) 
1

>  <s_m_source_file>  (19) 
/var/tmp/pbs.5083858.sched01/tmp89x1fiek/50k1xxx4n.sdf

>  <i_m_source_file_index>  (19) 
3

>  <i_lp_mmshare_version>  (19) 
48012

>  <i_f3d_flags>  (19) 
0

>  <s_epik_input>  (19) 
W0NIMl0xW0NASF0yT1tDQEBdKFtDSDNdKShPTzMpW0NIMl1bQ0gyXVtDQEhdNFtDQEhdKFtDSDNdKUMoPVtDSF1bQ0BASF0xW0NAQF0yMzQpW0NASF0oTihbQ0gzXSlbQ0gyXVtDSDJdNSluKGM2YzdbY0hdW2NIXVtjSF1bY0hdNiljOGM3W0NIMl1PW0NAXTkoW0NAQF0xNTgpW0NASF0yW0NAQF0xM09bQ0gyXVtDQEBIXShbQ0gyXUMzPU8pT1tDQEBdKE85KShPMilbQ0gzXQ==

>  <s_epik_cmdline>  (19) 
J2VwaWtfcHl0aG9uJywgJy1waHQnLCAnMi4wJywgJy1waCcsICc3LjAnLCAnLXRuJywgJzgnLCAnLW1hJywgJzIwMCcsICctaW1hZScsICc8aW5maWxlLm1hZT4nLCAnLW9tYWUnLCAnPG91dGZpbGUubWFlPic=

>  <r_epik_Ionization_Penalty>  (19) 
2.54891

>  <r_epik_Ionization_Penalty_Charging>  (19) 
2.54891

>  <r_epik_Ionization_Penalty_Neutral>  (19) 
3.61507e-09

>  <r_epik_State_Penalty>  (19) 
2.71734

>  <r_epik_Charging_Adjusted_Penalty>  (19) 
5.26624

>  <i_epik_Tot_Q>  (19) 
1

>  <i_epik_Tot_abs_Q>  (19) 
1

>  <s_epik_Chemistry_Notes>  (19) 
This compound contains an acetal/aminal-like group ( X-CH(R)-Y where X, Y are N, S, or O) that may be acid/base labile, releasing an aldehyde.

>  <s_lp_Force_Field>  (19) 
OPLS3e

>  <r_lp_Energy>  (19) 
195.846

>  <b_lp_Chiralities_Consistent>  (19) 
1

>  <s_lp_Variant>  (19) 
4:0-2

>  <s_i_glide_gridfile>  (19) 
pfpi4k_grid

>  <i_i_glide_lignum>  (19) 
3

>  <i_i_glide_rotatable_bonds>  (19) 
1

>  <r_i_docking_score>  (19) 
-2.17936

>  <r_i_glide_ligand_efficiency>  (19) 
-0.0463694

>  <r_i_glide_ligand_efficiency_sa>  (19) 
-0.167339

>  <r_i_glide_ligand_efficiency_ln>  (19) 
-0.449339

>  <r_i_glide_gscore>  (19) 
-2.17936

>  <r_i_glide_lipo>  (19) 
-0.163771

>  <r_i_glide_hbond>  (19) 
-0.0141363

>  <r_i_glide_metal>  (19) 
-0

>  <r_i_glide_rewards>  (19) 
-0.0426851

>  <r_i_glide_evdw>  (19) 
-23.1613

>  <r_i_glide_ecoul>  (19) 
-5.20189

>  <r_i_glide_erotb>  (19) 
0.0508801

>  <r_i_glide_esite>  (19) 
-0.0712984

>  <r_i_glide_emodel>  (19) 
-30.6293

>  <r_i_glide_energy>  (19) 
-28.3632

>  <r_i_glide_einternal>  (19) 
0.730604

>  <r_i_glide_intrahb_reward>  (19) 
-0

>  <i_i_glide_confnum>  (19) 
2

>  <i_i_glide_posenum>  (19) 
18

>  <r_i_glide_eff_state_penalty>  (19) 
0

>  <ligand_id>  (19) 
4

>  <original_smiles>  (19) 
CC1C(C2N(C)CCC34c5c(c6ccccc6n52)COC32OC3(C)OC5COC4(C(=O)C5)C2O3)=CC2CC3OC4(C)CCC1C23OO4

>  <smiles>  (19) 
[H]C1=C(C2([H])n3c4c(c5c([H])c([H])c([H])c([H])c53)C([H])([H])OC35OC6(C([H])([H])[H])OC7([H])C([H])([H])OC(C(=O)C7([H])[H])(C3([H])O6)C45C([H])([H])C([H])([H])[N+]2([H])C([H])([H])[H])C([H])(C([H])([H])[H])C2([H])C([H])([H])C([H])([H])C3(C([H])([H])[H])OOC24C([H])(O3)C([H])([H])C14[H]

$$$$
4:1:1
     RDKit          3D

 88 99  0  0  1  0  0  0  0  0999 V2000
    6.2605    0.1823    4.5900 C   0  0  0  0  0  0  0  0  0  0  0  0
    4.8729   -0.2364    3.9953 C   0  0  2  0  0  0  0  0  0  0  0  0
    3.7762   -0.4702    5.1115 C   0  0  0  0  0  0  0  0  0  0  0  0
    3.1689    0.7849    5.8541 C   0  0  2  0  0  0  0  0  0  0  0  0
    4.0503    2.0203    5.8625 N   0  0  2  0  0  0  0  0  0  0  0  0
    5.1235    2.1002    6.9192 C   0  0  0  0  0  0  0  0  0  0  0  0
    3.3023    3.3101    5.7142 C   0  0  0  0  0  0  0  0  0  0  0  0
    2.4350    3.6918    6.9436 C   0  0  0  0  0  0  0  0  0  0  0  0
    1.2414    2.7263    7.1879 C   0  0  1  0  0  0  0  0  0  0  0  0
    1.8882    1.5060    7.8355 C   0  0  0  0  0  0  0  0  0  0  0  0
    1.8336    1.2701    9.2352 C   0  0  0  0  0  0  0  0  0  0  0  0
    2.6022    0.1214    9.5216 C   0  0  0  0  0  0  0  0  0  0  0  0
    2.8811   -0.6067   10.6949 C   0  0  0  0  0  0  0  0  0  0  0  0
    3.7892   -1.7022   10.6764 C   0  0  0  0  0  0  0  0  0  0  0  0
    4.4190   -2.0468    9.4667 C   0  0  0  0  0  0  0  0  0  0  0  0
    4.1715   -1.3243    8.2882 C   0  0  0  0  0  0  0  0  0  0  0  0
    3.2361   -0.2569    8.2863 C   0  0  0  0  0  0  0  0  0  0  0  0
    2.7520    0.6080    7.2850 N   0  0  0  0  0  0  0  0  0  0  0  0
    1.0714    2.2786   10.0809 C   0  0  0  0  0  0  0  0  0  0  0  0
    0.6375    3.4586    9.4156 O   0  0  0  0  0  0  0  0  0  0  0  0
    0.0705    3.0502    8.2056 C   0  0  2  0  0  0  0  0  0  0  0  0
   -1.1601    2.2806    8.3439 O   0  0  0  0  0  0  0  0  0  0  0  0
   -2.2424    3.0762    7.8726 C   0  0  2  0  0  0  0  0  0  0  0  0
   -3.2507    3.1632    9.0194 C   0  0  0  0  0  0  0  0  0  0  0  0
   -2.9597    2.6556    6.7147 O   0  0  0  0  0  0  0  0  0  0  0  0
   -2.4896    2.8128    5.3326 C   0  0  1  0  0  0  0  0  0  0  0  0
   -1.5220    3.9440    4.7954 C   0  0  0  0  0  0  0  0  0  0  0  0
   -0.1048    3.6824    5.0254 O   0  0  0  0  0  0  0  0  0  0  0  0
    0.0468    2.8458    6.1702 C   0  0  1  0  0  0  0  0  0  0  0  0
   -0.5875    1.4516    5.8224 C   0  0  0  0  0  0  0  0  0  0  0  0
   -0.1945    0.3447    6.2022 O   0  0  0  0  0  0  0  0  0  0  0  0
   -1.8377    1.4971    4.9792 C   0  0  0  0  0  0  0  0  0  0  0  0
   -0.4156    3.9953    7.2339 C   0  0  1  0  0  0  0  0  0  0  0  0
   -1.7443    4.2980    7.6032 O   0  0  0  0  0  0  0  0  0  0  0  0
    3.3574   -1.7422    5.3687 C   0  0  0  0  0  0  0  0  0  0  0  0
    4.0477   -2.9285    4.6819 C   0  0  1  0  0  0  0  0  0  0  0  0
    3.4964   -4.2705    4.1358 C   0  0  0  0  0  0  0  0  0  0  0  0
    4.4099   -3.9905    2.9027 C   0  0  1  0  0  0  0  0  0  0  0  0
    3.9442   -4.3144    1.5920 O   0  0  0  0  0  0  0  0  0  0  0  0
    3.8103   -3.1790    0.7207 C   0  0  2  0  0  0  0  0  0  0  0  0
    3.3536   -3.7546   -0.6346 C   0  0  0  0  0  0  0  0  0  0  0  0
    5.1052   -2.3106    0.5488 C   0  0  0  0  0  0  0  0  0  0  0  0
    5.2550   -1.0906    1.5145 C   0  0  0  0  0  0  0  0  0  0  0  0
    5.1255   -1.4443    3.0034 C   0  0  2  0  0  0  0  0  0  0  0  0
    4.1294   -2.5388    3.2357 C   0  0  2  0  0  0  0  0  0  0  0  0
    2.8470   -2.1923    2.7007 O   0  0  0  0  0  0  0  0  0  0  0  0
    2.8151   -2.2812    1.1921 O   0  0  0  0  0  0  0  0  0  0  0  0
    6.2667    1.0987    5.1028 H   0  0  0  0  0  0  0  0  0  0  0  0
    7.0070    0.2452    3.7568 H   0  0  0  0  0  0  0  0  0  0  0  0
    6.6021   -0.6075    5.2730 H   0  0  0  0  0  0  0  0  0  0  0  0
    4.4988    0.5909    3.4023 H   0  0  0  0  0  0  0  0  0  0  0  0
    2.2883    1.0294    5.2535 H   0  0  0  0  0  0  0  0  0  0  0  0
    4.7380    2.3924    7.9068 H   0  0  0  0  0  0  0  0  0  0  0  0
    5.8476    2.8650    6.6283 H   0  0  0  0  0  0  0  0  0  0  0  0
    5.6930    1.1658    6.9670 H   0  0  0  0  0  0  0  0  0  0  0  0
    4.0419    4.0932    5.5569 H   0  0  0  0  0  0  0  0  0  0  0  0
    2.7148    3.2951    4.8035 H   0  0  0  0  0  0  0  0  0  0  0  0
    3.0504    3.7722    7.8358 H   0  0  0  0  0  0  0  0  0  0  0  0
    2.1319    4.7129    6.7405 H   0  0  0  0  0  0  0  0  0  0  0  0
    2.4267   -0.3133   11.6254 H   0  0  0  0  0  0  0  0  0  0  0  0
    4.0006   -2.2389   11.5818 H   0  0  0  0  0  0  0  0  0  0  0  0
    5.1279   -2.8691    9.4394 H   0  0  0  0  0  0  0  0  0  0  0  0
    4.7150   -1.5966    7.4118 H   0  0  0  0  0  0  0  0  0  0  0  0
    0.2007    1.8011   10.5370 H   0  0  0  0  0  0  0  0  0  0  0  0
    1.7046    2.5833   10.9134 H   0  0  0  0  0  0  0  0  0  0  0  0
   -4.0757    3.8149    8.7507 H   0  0  0  0  0  0  0  0  0  0  0  0
   -2.7716    3.5272    9.9311 H   0  0  0  0  0  0  0  0  0  0  0  0
   -3.6314    2.1678    9.2345 H   0  0  0  0  0  0  0  0  0  0  0  0
   -3.4014    2.9035    4.7546 H   0  0  0  0  0  0  0  0  0  0  0  0
   -1.6528    4.0326    3.7161 H   0  0  0  0  0  0  0  0  0  0  0  0
   -1.7718    4.9195    5.1948 H   0  0  0  0  0  0  0  0  0  0  0  0
   -2.4805    0.6488    5.2075 H   0  0  0  0  0  0  0  0  0  0  0  0
   -1.5706    1.4502    3.9233 H   0  0  0  0  0  0  0  0  0  0  0  0
    0.1459    4.9268    7.1839 H   0  0  0  0  0  0  0  0  0  0  0  0
    2.5864   -1.9825    6.0799 H   0  0  0  0  0  0  0  0  0  0  0  0
    5.0164   -3.0959    5.1285 H   0  0  0  0  0  0  0  0  0  0  0  0
    3.8340   -5.1460    4.6898 H   0  0  0  0  0  0  0  0  0  0  0  0
    2.4289   -4.3067    3.9195 H   0  0  0  0  0  0  0  0  0  0  0  0
    5.4570   -4.2614    3.0618 H   0  0  0  0  0  0  0  0  0  0  0  0
    2.4595   -4.3644   -0.5183 H   0  0  0  0  0  0  0  0  0  0  0  0
    4.1132   -4.3921   -1.0915 H   0  0  0  0  0  0  0  0  0  0  0  0
    3.1102   -2.9711   -1.3520 H   0  0  0  0  0  0  0  0  0  0  0  0
    5.9956   -2.9415    0.5835 H   0  0  0  0  0  0  0  0  0  0  0  0
    5.1008   -1.8709   -0.4479 H   0  0  0  0  0  0  0  0  0  0  0  0
    6.2260   -0.6173    1.3622 H   0  0  0  0  0  0  0  0  0  0  0  0
    4.4999   -0.3422    1.2687 H   0  0  0  0  0  0  0  0  0  0  0  0
    6.0858   -1.8850    3.2540 H   0  0  0  0  0  0  0  0  0  0  0  0
    4.5501    1.9428    4.9711 H   0  0  0  0  0  0  0  0  0  0  0  0
  1  2  1  0
  1 48  1  0
  1 49  1  0
  1 50  1  0
  2 44  1  0
  2  3  1  0
  2 51  1  6
  3  4  1  0
  3 35  2  0
  4 18  1  0
  4  5  1  0
  4 52  1  6
  5  6  1  0
  5  7  1  0
  5 88  1  6
  6 53  1  0
  6 54  1  0
  6 55  1  0
  7  8  1  0
  7 56  1  0
  7 57  1  0
  9  8  1  6
  8 58  1  0
  8 59  1  0
  9 21  1  0
  9 29  1  0
  9 10  1  0
 10 18  1  0
 10 11  2  0
 11 12  1  0
 11 19  1  0
 12 17  2  0
 12 13  1  0
 13 14  2  0
 13 60  1  0
 14 15  1  0
 14 61  1  0
 15 16  2  0
 15 62  1  0
 16 17  1  0
 16 63  1  0
 17 18  1  0
 19 20  1  0
 19 64  1  0
 19 65  1  0
 21 20  1  1
 21 33  1  0
 21 22  1  0
 22 23  1  0
 23 34  1  0
 23 24  1  1
 23 25  1  0
 24 66  1  0
 24 67  1  0
 24 68  1  0
 25 26  1  0
 26 32  1  0
 26 27  1  0
 26 69  1  6
 27 28  1  0
 27 70  1  0
 27 71  1  0
 29 28  1  6
 29 30  1  0
 29 33  1  0
 30 31  2  0
 30 32  1  0
 32 72  1  0
 32 73  1  0
 33 34  1  0
 33 74  1  6
 35 36  1  0
 35 75  1  0
 36 45  1  0
 36 37  1  0
 36 76  1  1
 37 38  1  0
 37 77  1  0
 37 78  1  0
 38 45  1  0
 38 39  1  0
 38 79  1  1
 39 40  1  0
 40 47  1  0
 40 41  1  6
 40 42  1  0
 41 80  1  0
 41 81  1  0
 41 82  1  0
 42 43  1  0
 42 83  1  0
 42 84  1  0
 43 44  1  0
 43 85  1  0
 43 86  1  0
 44 45  1  0
 44 87  1  1
 45 46  1  6
 46 47  1  0
M  CHG  1   5   1
M  END
>  <i_m_ct_stereo_status>  (20) 
1

>  <s_m_source_file>  (20) 
/var/tmp/pbs.5083858.sched01/tmp89x1fiek/50k1xxx4n.sdf

>  <i_m_source_file_index>  (20) 
3

>  <i_lp_mmshare_version>  (20) 
48012

>  <i_f3d_flags>  (20) 
0

>  <s_epik_input>  (20) 
W0NIMl0xW0NASF0yT1tDQEBdKFtDSDNdKShPTzMpW0NIMl1bQ0gyXVtDQEhdNFtDQEhdKFtDSDNdKUMoPVtDSF1bQ0BASF0xW0NAQF0yMzQpW0NASF0oTihbQ0gzXSlbQ0gyXVtDSDJdNSluKGM2YzdbY0hdW2NIXVtjSF1bY0hdNiljOGM3W0NIMl1PW0NAXTkoW0NAQF0xNTgpW0NASF0yW0NAQF0xM09bQ0gyXVtDQEBIXShbQ0gyXUMzPU8pT1tDQEBdKE85KShPMilbQ0gzXQ==

>  <s_epik_cmdline>  (20) 
J2VwaWtfcHl0aG9uJywgJy1waHQnLCAnMi4wJywgJy1waCcsICc3LjAnLCAnLXRuJywgJzgnLCAnLW1hJywgJzIwMCcsICctaW1hZScsICc8aW5maWxlLm1hZT4nLCAnLW9tYWUnLCAnPG91dGZpbGUubWFlPic=

>  <r_epik_Ionization_Penalty>  (20) 
2.54891

>  <r_epik_Ionization_Penalty_Charging>  (20) 
2.54891

>  <r_epik_Ionization_Penalty_Neutral>  (20) 
3.61507e-09

>  <r_epik_State_Penalty>  (20) 
2.71734

>  <r_epik_Charging_Adjusted_Penalty>  (20) 
5.26624

>  <i_epik_Tot_Q>  (20) 
1

>  <i_epik_Tot_abs_Q>  (20) 
1

>  <s_epik_Chemistry_Notes>  (20) 
This compound contains an acetal/aminal-like group ( X-CH(R)-Y where X, Y are N, S, or O) that may be acid/base labile, releasing an aldehyde.

>  <s_lp_Force_Field>  (20) 
OPLS3e

>  <r_lp_Energy>  (20) 
195.846

>  <b_lp_Chiralities_Consistent>  (20) 
1

>  <s_lp_Variant>  (20) 
4:0-2

>  <s_i_glide_gridfile>  (20) 
pfpi4k_grid

>  <i_i_glide_lignum>  (20) 
3

>  <i_i_glide_rotatable_bonds>  (20) 
1

>  <r_i_docking_score>  (20) 
-1.78806

>  <r_i_glide_ligand_efficiency>  (20) 
-0.0380438

>  <r_i_glide_ligand_efficiency_sa>  (20) 
-0.137293

>  <r_i_glide_ligand_efficiency_ln>  (20) 
-0.36866

>  <r_i_glide_gscore>  (20) 
-1.78806

>  <r_i_glide_lipo>  (20) 
-0.446803

>  <r_i_glide_hbond>  (20) 
0

>  <r_i_glide_metal>  (20) 
-0

>  <r_i_glide_rewards>  (20) 
-0.074043

>  <r_i_glide_evdw>  (20) 
-22.4905

>  <r_i_glide_ecoul>  (20) 
-1.19958

>  <r_i_glide_erotb>  (20) 
0.0508801

>  <r_i_glide_esite>  (20) 
-0.0136298

>  <r_i_glide_emodel>  (20) 
-23.8596

>  <r_i_glide_energy>  (20) 
-23.6901

>  <r_i_glide_einternal>  (20) 
2.38646

>  <r_i_glide_intrahb_reward>  (20) 
-0

>  <i_i_glide_confnum>  (20) 
4

>  <i_i_glide_posenum>  (20) 
11

>  <r_i_glide_eff_state_penalty>  (20) 
0

>  <ligand_id>  (20) 
4

>  <original_smiles>  (20) 
CC1C(C2N(C)CCC34c5c(c6ccccc6n52)COC32OC3(C)OC5COC4(C(=O)C5)C2O3)=CC2CC3OC4(C)CCC1C23OO4

>  <smiles>  (20) 
[H]C1=C(C2([H])n3c4c(c5c([H])c([H])c([H])c([H])c53)C([H])([H])OC35OC6(C([H])([H])[H])OC7([H])C([H])([H])OC(C(=O)C7([H])[H])(C3([H])O6)C45C([H])([H])C([H])([H])[N+]2([H])C([H])([H])[H])C([H])(C([H])([H])[H])C2([H])C([H])([H])C([H])([H])C3(C([H])([H])[H])OOC24C([H])(O3)C([H])([H])C14[H]

$$$$
4:1:2
     RDKit          3D

 88 99  0  0  1  0  0  0  0  0999 V2000
    5.8443   -3.0349    5.9153 C   0  0  0  0  0  0  0  0  0  0  0  0
    4.7701   -2.9991    4.8026 C   0  0  2  0  0  0  0  0  0  0  0  0
    3.3097   -2.7333    5.3523 C   0  0  0  0  0  0  0  0  0  0  0  0
    2.9396   -1.2640    5.8219 C   0  0  2  0  0  0  0  0  0  0  0  0
    4.1163   -0.3616    6.1318 N   0  0  2  0  0  0  0  0  0  0  0  0
    4.7212   -0.4494    7.5013 C   0  0  0  0  0  0  0  0  0  0  0  0
    3.9153    1.0664    5.7066 C   0  0  0  0  0  0  0  0  0  0  0  0
    2.8505    1.8410    6.5235 C   0  0  0  0  0  0  0  0  0  0  0  0
    1.4015    1.3167    6.3347 C   0  0  1  0  0  0  0  0  0  0  0  0
    1.3518    0.0475    7.1788 C   0  0  0  0  0  0  0  0  0  0  0  0
    0.7422    0.0227    8.4671 C   0  0  0  0  0  0  0  0  0  0  0  0
    0.9456   -1.2501    9.0204 C   0  0  0  0  0  0  0  0  0  0  0  0
    0.5621   -1.8699   10.2251 C   0  0  0  0  0  0  0  0  0  0  0  0
    1.0191   -3.1726   10.5427 C   0  0  0  0  0  0  0  0  0  0  0  0
    1.8721   -3.8490    9.6495 C   0  0  0  0  0  0  0  0  0  0  0  0
    2.2741   -3.2500    8.4508 C   0  0  0  0  0  0  0  0  0  0  0  0
    1.8076   -1.9609    8.1005 C   0  0  0  0  0  0  0  0  0  0  0  0
    2.0041   -1.1266    6.9974 N   0  0  0  0  0  0  0  0  0  0  0  0
    0.1158    1.3180    8.9690 C   0  0  0  0  0  0  0  0  0  0  0  0
    0.3435    2.4720    8.1799 O   0  0  0  0  0  0  0  0  0  0  0  0
    0.1288    2.1004    6.8542 C   0  0  2  0  0  0  0  0  0  0  0  0
   -1.2478    1.7457    6.5442 O   0  0  0  0  0  0  0  0  0  0  0  0
   -1.7803    2.7573    5.7012 C   0  0  2  0  0  0  0  0  0  0  0  0
   -3.0148    3.2918    6.4049 C   0  0  0  0  0  0  0  0  0  0  0  0
   -2.1746    2.4301    4.3735 O   0  0  0  0  0  0  0  0  0  0  0  0
   -1.2451    2.2655    3.2421 C   0  0  1  0  0  0  0  0  0  0  0  0
    0.1584    2.9899    3.0921 C   0  0  0  0  0  0  0  0  0  0  0  0
    1.2450    2.3546    3.8382 O   0  0  0  0  0  0  0  0  0  0  0  0
    0.7301    1.6530    4.9546 C   0  0  1  0  0  0  0  0  0  0  0  0
   -0.1605    0.4785    4.4100 C   0  0  0  0  0  0  0  0  0  0  0  0
   -0.3086   -0.6411    4.9151 O   0  0  0  0  0  0  0  0  0  0  0  0
   -0.9608    0.7904    3.1636 C   0  0  0  0  0  0  0  0  0  0  0  0
    0.3345    3.0179    5.7594 C   0  0  1  0  0  0  0  0  0  0  0  0
   -0.8654    3.7420    5.6207 O   0  0  0  0  0  0  0  0  0  0  0  0
    2.4217   -3.7684    5.3992 C   0  0  0  0  0  0  0  0  0  0  0  0
    2.8701   -5.1850    5.0289 C   0  0  1  0  0  0  0  0  0  0  0  0
    2.1766   -6.3400    4.2600 C   0  0  0  0  0  0  0  0  0  0  0  0
    3.5361   -6.5082    3.5039 C   0  0  1  0  0  0  0  0  0  0  0  0
    3.5546   -6.8182    2.1134 O   0  0  0  0  0  0  0  0  0  0  0  0
    4.1440   -5.8040    1.2933 C   0  0  2  0  0  0  0  0  0  0  0  0
    4.1331   -6.3411   -0.1293 C   0  0  0  0  0  0  0  0  0  0  0  0
    5.5899   -5.4180    1.6656 C   0  0  0  0  0  0  0  0  0  0  0  0
    5.7135   -4.2320    2.6311 C   0  0  0  0  0  0  0  0  0  0  0  0
    4.9400   -4.3400    3.9589 C   0  0  2  0  0  0  0  0  0  0  0  0
    3.6409   -5.0169    3.7395 C   0  0  2  0  0  0  0  0  0  0  0  0
    2.8790   -4.3303    2.7340 O   0  0  0  0  0  0  0  0  0  0  0  0
    3.3878   -4.6051    1.3309 O   0  0  0  0  0  0  0  0  0  0  0  0
    5.9846   -2.0843    6.3534 H   0  0  0  0  0  0  0  0  0  0  0  0
    6.8380   -3.2318    5.5281 H   0  0  0  0  0  0  0  0  0  0  0  0
    5.6097   -3.7960    6.6570 H   0  0  0  0  0  0  0  0  0  0  0  0
    4.9722   -2.1659    4.1205 H   0  0  0  0  0  0  0  0  0  0  0  0
    2.4498   -0.8523    4.9414 H   0  0  0  0  0  0  0  0  0  0  0  0
    4.1322    0.0575    8.2697 H   0  0  0  0  0  0  0  0  0  0  0  0
    5.7181    0.0028    7.4808 H   0  0  0  0  0  0  0  0  0  0  0  0
    4.8540   -1.4816    7.8472 H   0  0  0  0  0  0  0  0  0  0  0  0
    4.8801    1.5716    5.8137 H   0  0  0  0  0  0  0  0  0  0  0  0
    3.7019    1.1077    4.6363 H   0  0  0  0  0  0  0  0  0  0  0  0
    3.1148    1.8541    7.5755 H   0  0  0  0  0  0  0  0  0  0  0  0
    2.9675    2.8732    6.2158 H   0  0  0  0  0  0  0  0  0  0  0  0
   -0.0534   -1.3350   10.9338 H   0  0  0  0  0  0  0  0  0  0  0  0
    0.7282   -3.6284   11.4785 H   0  0  0  0  0  0  0  0  0  0  0  0
    2.2400   -4.8351    9.9049 H   0  0  0  0  0  0  0  0  0  0  0  0
    2.9587   -3.7834    7.8189 H   0  0  0  0  0  0  0  0  0  0  0  0
   -0.9636    1.1854    9.0901 H   0  0  0  0  0  0  0  0  0  0  0  0
    0.4857    1.5267    9.9771 H   0  0  0  0  0  0  0  0  0  0  0  0
   -3.3662    4.1269    5.8083 H   0  0  0  0  0  0  0  0  0  0  0  0
   -2.7968    3.6253    7.4211 H   0  0  0  0  0  0  0  0  0  0  0  0
   -3.7853    2.5246    6.4706 H   0  0  0  0  0  0  0  0  0  0  0  0
   -1.8356    2.5272    2.3703 H   0  0  0  0  0  0  0  0  0  0  0  0
    0.4842    2.9112    2.0676 H   0  0  0  0  0  0  0  0  0  0  0  0
    0.0716    4.0575    3.3182 H   0  0  0  0  0  0  0  0  0  0  0  0
   -1.8716    0.2057    3.1587 H   0  0  0  0  0  0  0  0  0  0  0  0
   -0.3851    0.5349    2.2746 H   0  0  0  0  0  0  0  0  0  0  0  0
    1.1388    3.7408    5.8946 H   0  0  0  0  0  0  0  0  0  0  0  0
    1.4154   -3.6517    5.7629 H   0  0  0  0  0  0  0  0  0  0  0  0
    3.4746   -5.5881    5.8339 H   0  0  0  0  0  0  0  0  0  0  0  0
    1.9527   -7.2161    4.8724 H   0  0  0  0  0  0  0  0  0  0  0  0
    1.3349   -6.0668    3.6261 H   0  0  0  0  0  0  0  0  0  0  0  0
    4.2935   -7.0725    4.0551 H   0  0  0  0  0  0  0  0  0  0  0  0
    3.0946   -6.5746   -0.2922 H   0  0  0  0  0  0  0  0  0  0  0  0
    4.7170   -7.2538   -0.2662 H   0  0  0  0  0  0  0  0  0  0  0  0
    4.4573   -5.6073   -0.8705 H   0  0  0  0  0  0  0  0  0  0  0  0
    6.1417   -6.2724    2.0627 H   0  0  0  0  0  0  0  0  0  0  0  0
    6.1521   -5.1076    0.7829 H   0  0  0  0  0  0  0  0  0  0  0  0
    6.7590   -4.3210    2.8554 H   0  0  0  0  0  0  0  0  0  0  0  0
    5.4772   -3.2727    2.1387 H   0  0  0  0  0  0  0  0  0  0  0  0
    5.5305   -5.0210    4.5796 H   0  0  0  0  0  0  0  0  0  0  0  0
    4.8316   -0.6957    5.4776 H   0  0  0  0  0  0  0  0  0  0  0  0
  1  2  1  0
  1 48  1  0
  1 49  1  0
  1 50  1  0
  2 44  1  0
  2  3  1  0
  2 51  1  6
  3  4  1  0
  3 35  2  0
  4 18  1  0
  4  5  1  0
  4 52  1  6
  5  6  1  0
  5  7  1  0
  5 88  1  6
  6 53  1  0
  6 54  1  0
  6 55  1  0
  7  8  1  0
  7 56  1  0
  7 57  1  0
  9  8  1  6
  8 58  1  0
  8 59  1  0
  9 21  1  0
  9 29  1  0
  9 10  1  0
 10 18  1  0
 10 11  2  0
 11 12  1  0
 11 19  1  0
 12 17  2  0
 12 13  1  0
 13 14  2  0
 13 60  1  0
 14 15  1  0
 14 61  1  0
 15 16  2  0
 15 62  1  0
 16 17  1  0
 16 63  1  0
 17 18  1  0
 19 20  1  0
 19 64  1  0
 19 65  1  0
 21 20  1  1
 21 33  1  0
 21 22  1  0
 22 23  1  0
 23 34  1  0
 23 24  1  1
 23 25  1  0
 24 66  1  0
 24 67  1  0
 24 68  1  0
 25 26  1  0
 26 32  1  0
 26 27  1  0
 26 69  1  6
 27 28  1  0
 27 70  1  0
 27 71  1  0
 29 28  1  6
 29 30  1  0
 29 33  1  0
 30 31  2  0
 30 32  1  0
 32 72  1  0
 32 73  1  0
 33 34  1  0
 33 74  1  1
 35 36  1  0
 35 75  1  0
 36 45  1  0
 36 37  1  0
 36 76  1  1
 37 38  1  0
 37 77  1  0
 37 78  1  0
 38 45  1  0
 38 39  1  0
 38 79  1  1
 39 40  1  0
 40 47  1  0
 40 41  1  6
 40 42  1  0
 41 80  1  0
 41 81  1  0
 41 82  1  0
 42 43  1  0
 42 83  1  0
 42 84  1  0
 43 44  1  0
 43 85  1  0
 43 86  1  0
 44 45  1  0
 44 87  1  1
 45 46  1  6
 46 47  1  0
M  CHG  1   5   1
M  END
>  <i_m_ct_stereo_status>  (21) 
1

>  <s_m_source_file>  (21) 
/var/tmp/pbs.5083858.sched01/tmp89x1fiek/50k1xxx4n.sdf

>  <i_m_source_file_index>  (21) 
3

>  <i_lp_mmshare_version>  (21) 
48012

>  <i_f3d_flags>  (21) 
0

>  <s_epik_input>  (21) 
W0NIMl0xW0NASF0yT1tDQEBdKFtDSDNdKShPTzMpW0NIMl1bQ0gyXVtDQEhdNFtDQEhdKFtDSDNdKUMoPVtDSF1bQ0BASF0xW0NAQF0yMzQpW0NASF0oTihbQ0gzXSlbQ0gyXVtDSDJdNSluKGM2YzdbY0hdW2NIXVtjSF1bY0hdNiljOGM3W0NIMl1PW0NAXTkoW0NAQF0xNTgpW0NASF0yW0NAQF0xM09bQ0gyXVtDQEBIXShbQ0gyXUMzPU8pT1tDQEBdKE85KShPMilbQ0gzXQ==

>  <s_epik_cmdline>  (21) 
J2VwaWtfcHl0aG9uJywgJy1waHQnLCAnMi4wJywgJy1waCcsICc3LjAnLCAnLXRuJywgJzgnLCAnLW1hJywgJzIwMCcsICctaW1hZScsICc8aW5maWxlLm1hZT4nLCAnLW9tYWUnLCAnPG91dGZpbGUubWFlPic=

>  <r_epik_Ionization_Penalty>  (21) 
2.54891

>  <r_epik_Ionization_Penalty_Charging>  (21) 
2.54891

>  <r_epik_Ionization_Penalty_Neutral>  (21) 
3.61507e-09

>  <r_epik_State_Penalty>  (21) 
2.71734

>  <r_epik_Charging_Adjusted_Penalty>  (21) 
5.26624

>  <i_epik_Tot_Q>  (21) 
1

>  <i_epik_Tot_abs_Q>  (21) 
1

>  <s_epik_Chemistry_Notes>  (21) 
This compound contains an acetal/aminal-like group ( X-CH(R)-Y where X, Y are N, S, or O) that may be acid/base labile, releasing an aldehyde.

>  <s_lp_Force_Field>  (21) 
OPLS3e

>  <r_lp_Energy>  (21) 
195.846

>  <b_lp_Chiralities_Consistent>  (21) 
1

>  <s_lp_Variant>  (21) 
4:0-2

>  <s_i_glide_gridfile>  (21) 
pfpi4k_grid

>  <i_i_glide_lignum>  (21) 
3

>  <i_i_glide_rotatable_bonds>  (21) 
1

>  <r_i_docking_score>  (21) 
-1.39904

>  <r_i_glide_ligand_efficiency>  (21) 
-0.0297669

>  <r_i_glide_ligand_efficiency_sa>  (21) 
-0.107423

>  <r_i_glide_ligand_efficiency_ln>  (21) 
-0.288454

>  <r_i_glide_gscore>  (21) 
-1.39904

>  <r_i_glide_lipo>  (21) 
-0.240702

>  <r_i_glide_hbond>  (21) 
0

>  <r_i_glide_metal>  (21) 
-0

>  <r_i_glide_rewards>  (21) 
-0.128108

>  <r_i_glide_evdw>  (21) 
-14.1591

>  <r_i_glide_ecoul>  (21) 
-2.39405

>  <r_i_glide_erotb>  (21) 
0.0508801

>  <r_i_glide_esite>  (21) 
-0.0140515

>  <r_i_glide_emodel>  (21) 
-14.6844

>  <r_i_glide_energy>  (21) 
-16.5531

>  <r_i_glide_einternal>  (21) 
2.43958

>  <r_i_glide_intrahb_reward>  (21) 
-0

>  <i_i_glide_confnum>  (21) 
2

>  <i_i_glide_posenum>  (21) 
35

>  <r_i_glide_eff_state_penalty>  (21) 
0

>  <ligand_id>  (21) 
4

>  <original_smiles>  (21) 
CC1C(C2N(C)CCC34c5c(c6ccccc6n52)COC32OC3(C)OC5COC4(C(=O)C5)C2O3)=CC2CC3OC4(C)CCC1C23OO4

>  <smiles>  (21) 
[H]C1=C(C2([H])n3c4c(c5c([H])c([H])c([H])c([H])c53)C([H])([H])OC35OC6(C([H])([H])[H])OC7([H])C([H])([H])OC(C(=O)C7([H])[H])(C3([H])O6)C45C([H])([H])C([H])([H])[N+]2([H])C([H])([H])[H])C([H])(C([H])([H])[H])C2([H])C([H])([H])C([H])([H])C3(C([H])([H])[H])OOC24C([H])(O3)C([H])([H])C14[H]

$$$$
5:0:0
     RDKit          3D

 42 47  0  0  1  0  0  0  0  0999 V2000
    3.8620   -2.1677   -4.3682 O   0  0  0  0  0  0  0  0  0  0  0  0
    4.2230   -1.8879   -3.2505 C   0  0  0  0  0  0  0  0  0  0  0  0
    4.1372   -0.6153   -2.6015 C   0  0  0  0  0  0  0  0  0  0  0  0
    4.6070   -0.7117   -1.3475 C   0  0  0  0  0  0  0  0  0  0  0  0
    5.1504   -2.0671   -1.0414 C   0  0  2  0  0  0  0  0  0  0  0  0
    4.8513   -2.9258   -2.2981 C   0  0  0  0  0  0  0  0  0  0  0  0
    4.5494   -2.6653    0.2274 C   0  0  0  0  0  0  0  0  0  0  0  0
    5.7395   -3.3466    0.8980 C   0  0  1  0  0  0  0  0  0  0  0  0
    5.5366   -4.7713    1.1112 N   0  0  0  0  0  0  0  0  0  0  0  0
    6.5421   -5.7704    1.0558 C   0  0  0  0  0  0  0  0  0  0  0  0
    5.9878   -7.0065    1.3024 C   0  0  0  0  0  0  0  0  0  0  0  0
    4.6317   -6.8125    1.5631 C   0  0  0  0  0  0  0  0  0  0  0  0
    3.6118   -7.7077    1.8682 C   0  0  0  0  0  0  0  0  0  0  0  0
    3.6818   -9.0444    2.0077 N   0  0  0  0  0  0  0  0  0  0  0  0
    2.3877   -9.3978    2.2983 N   0  0  0  0  0  0  0  0  0  0  0  0
    1.5398   -8.3006    2.3311 C   0  0  0  0  0  0  0  0  0  0  0  0
    0.1252   -8.3752    2.6407 C   0  0  0  0  0  0  0  0  0  0  0  0
   -0.7764   -9.3983    2.4879 C   0  0  0  0  0  0  0  0  0  0  0  0
   -2.0122   -8.9685    2.9173 N   0  0  0  0  0  0  0  0  0  0  0  0
   -1.7790   -7.7879    3.4599 C   0  0  0  0  0  0  0  0  0  0  0  0
   -0.4999   -7.3295    3.2817 O   0  0  0  0  0  0  0  0  0  0  0  0
    2.3383   -7.1984    2.0649 C   0  0  0  0  0  0  0  0  0  0  0  0
    2.1380   -5.8036    1.9730 C   0  0  0  0  0  0  0  0  0  0  0  0
    3.1349   -4.9257    1.7048 N   0  0  0  0  0  0  0  0  0  0  0  0
    4.3856   -5.4624    1.4759 C   0  0  0  0  0  0  0  0  0  0  0  0
    6.9157   -3.0760   -0.0642 C   0  0  0  0  0  0  0  0  0  0  0  0
    6.5526   -1.9453   -0.8217 O   0  0  0  0  0  0  0  0  0  0  0  0
    2.1259  -10.3596    2.4900 H   0  0  0  0  0  0  0  0  0  0  0  0
    3.7608    0.2915   -3.0563 H   0  0  0  0  0  0  0  0  0  0  0  0
    4.6370    0.0859   -0.6236 H   0  0  0  0  0  0  0  0  0  0  0  0
    4.1078   -3.6870   -2.1418 H   0  0  0  0  0  0  0  0  0  0  0  0
    5.7394   -3.3249   -2.7511 H   0  0  0  0  0  0  0  0  0  0  0  0
    4.1173   -1.9133    0.8845 H   0  0  0  0  0  0  0  0  0  0  0  0
    3.7290   -3.3115   -0.0897 H   0  0  0  0  0  0  0  0  0  0  0  0
    5.9301   -2.8783    1.8639 H   0  0  0  0  0  0  0  0  0  0  0  0
    7.5758   -5.5071    0.8248 H   0  0  0  0  0  0  0  0  0  0  0  0
    6.4664   -7.9706    1.3155 H   0  0  0  0  0  0  0  0  0  0  0  0
   -0.6376  -10.3747    2.0293 H   0  0  0  0  0  0  0  0  0  0  0  0
   -2.5497   -7.2007    3.9375 H   0  0  0  0  0  0  0  0  0  0  0  0
    1.1535   -5.3647    2.0960 H   0  0  0  0  0  0  0  0  0  0  0  0
    7.8639   -2.9176    0.4450 H   0  0  0  0  0  0  0  0  0  0  0  0
    7.0349   -3.8828   -0.7850 H   0  0  0  0  0  0  0  0  0  0  0  0
  1  2  2  0
  2  6  1  0
  2  3  1  0
  3  4  2  0
  3 29  1  0
  4  5  1  0
  4 30  1  0
  5 27  1  1
  5  6  1  0
  5  7  1  0
  6 31  1  0
  6 32  1  0
  7  8  1  0
  7 33  1  0
  7 34  1  0
  8  9  1  0
  8 26  1  0
  8 35  1  1
  9 25  1  0
  9 10  1  0
 10 11  2  0
 10 36  1  0
 11 12  1  0
 11 37  1  0
 12 25  2  0
 12 13  1  0
 13 22  1  0
 13 14  2  0
 14 15  1  0
 15 28  1  0
 15 16  1  0
 16 17  1  0
 16 22  2  0
 17 21  1  0
 17 18  2  0
 18 19  1  0
 18 38  1  0
 19 20  2  0
 20 21  1  0
 20 39  1  0
 22 23  1  0
 23 24  2  0
 23 40  1  0
 24 25  1  0
 26 27  1  0
 26 41  1  0
 26 42  1  0
M  END
>  <i_m_ct_stereo_status>  (22) 
1

>  <s_m_source_file>  (22) 
/var/tmp/pbs.5083858.sched01/tmp89x1fiek/50k1xxx4n.sdf

>  <i_m_source_file_index>  (22) 
4

>  <i_lp_mmshare_version>  (22) 
48012

>  <i_f3d_flags>  (22) 
0

>  <s_epik_input>  (22) 
Tz1DKFtDSDJdMSlbQ0hdPVtDSF1bQ0BAXTEyW0NIMl1bQ0BIXShbQ0gyXU8yKW4oW2NIXVtjSF0zKWM0bltjSF1jKGM1YzM0KWMoW25IXW41KS1jNltjSF1uW2NIXW82

>  <s_epik_cmdline>  (22) 
J2VwaWtfcHl0aG9uJywgJy1waHQnLCAnMi4wJywgJy1waCcsICc3LjAnLCAnLXRuJywgJzgnLCAnLW1hJywgJzIwMCcsICctaW1hZScsICc8aW5maWxlLm1hZT4nLCAnLW9tYWUnLCAnPG91dGZpbGUubWFlPic=

>  <r_lp_tautomer_probability>  (22) 
1

>  <r_epik_Ionization_Penalty>  (22) 
0.000287802

>  <r_epik_Ionization_Penalty_Charging>  (22) 
0

>  <r_epik_Ionization_Penalty_Neutral>  (22) 
0.000287802

>  <r_epik_State_Penalty>  (22) 
-0

>  <r_epik_Charging_Adjusted_Penalty>  (22) 
0

>  <i_epik_Tot_Q>  (22) 
0

>  <i_epik_Tot_abs_Q>  (22) 
0

>  <s_lp_Force_Field>  (22) 
OPLS3e

>  <r_lp_Energy>  (22) 
10.0345

>  <b_lp_Chiralities_Consistent>  (22) 
1

>  <s_lp_Variant>  (22) 
5:0-1

>  <s_i_glide_gridfile>  (22) 
pfpi4k_grid

>  <i_i_glide_lignum>  (22) 
4

>  <i_i_glide_rotatable_bonds>  (22) 
2

>  <r_i_docking_score>  (22) 
-4.76623

>  <r_i_glide_ligand_efficiency>  (22) 
-0.176527

>  <r_i_glide_ligand_efficiency_sa>  (22) 
-0.529581

>  <r_i_glide_ligand_efficiency_ln>  (22) 
-1.1095

>  <r_i_glide_gscore>  (22) 
-4.76623

>  <r_i_glide_lipo>  (22) 
-0.806486

>  <r_i_glide_hbond>  (22) 
-0.48

>  <r_i_glide_metal>  (22) 
-0

>  <r_i_glide_rewards>  (22) 
-1.245

>  <r_i_glide_evdw>  (22) 
-35.2931

>  <r_i_glide_ecoul>  (22) 
-5.09342

>  <r_i_glide_erotb>  (22) 
0.29392

>  <r_i_glide_esite>  (22) 
0

>  <r_i_glide_emodel>  (22) 
-48.917

>  <r_i_glide_energy>  (22) 
-40.3865

>  <r_i_glide_einternal>  (22) 
4.99897

>  <r_i_glide_intrahb_reward>  (22) 
-0

>  <i_i_glide_confnum>  (22) 
6

>  <i_i_glide_posenum>  (22) 
25

>  <r_i_glide_eff_state_penalty>  (22) 
0

>  <ligand_id>  (22) 
5

>  <original_smiles>  (22) 
O=C1C=CC2(C1)CC(n1ccc3c4n[nH]c(-c5cnco5)c4cnc31)CO2

>  <smiles>  (22) 
[H]C1=C([H])C2(OC([H])([H])C([H])(n3c([H])c([H])c4c5nn([H])c(-c6oc([H])nc6[H])c5c([H])nc43)C2([H])[H])C([H])([H])C1=O

$$$$
5:0:1
     RDKit          3D

 42 47  0  0  1  0  0  0  0  0999 V2000
    3.8041   -2.1651   -4.4380 O   0  0  0  0  0  0  0  0  0  0  0  0
    4.2175   -1.8871   -3.3222 C   0  0  0  0  0  0  0  0  0  0  0  0
    4.1774   -0.5742   -2.7058 C   0  0  0  0  0  0  0  0  0  0  0  0
    4.6781   -0.6658   -1.4750 C   0  0  0  0  0  0  0  0  0  0  0  0
    5.2109   -2.0297   -1.1381 C   0  0  2  0  0  0  0  0  0  0  0  0
    4.8509   -2.8981   -2.3728 C   0  0  0  0  0  0  0  0  0  0  0  0
    4.6433   -2.5812    0.1610 C   0  0  0  0  0  0  0  0  0  0  0  0
    5.8442   -3.2689    0.8095 C   0  0  1  0  0  0  0  0  0  0  0  0
    5.6137   -4.6784    1.0692 N   0  0  0  0  0  0  0  0  0  0  0  0
    6.5943   -5.7067    1.0005 C   0  0  0  0  0  0  0  0  0  0  0  0
    6.0134   -6.9200    1.3017 C   0  0  0  0  0  0  0  0  0  0  0  0
    4.6777   -6.6823    1.6049 C   0  0  0  0  0  0  0  0  0  0  0  0
    3.6406   -7.5406    1.9771 C   0  0  0  0  0  0  0  0  0  0  0  0
    3.6831   -8.8766    2.1442 N   0  0  0  0  0  0  0  0  0  0  0  0
    2.3893   -9.1805    2.4984 N   0  0  0  0  0  0  0  0  0  0  0  0
    1.5766   -8.0602    2.5521 C   0  0  0  0  0  0  0  0  0  0  0  0
    0.1709   -8.1117    2.9009 C   0  0  0  0  0  0  0  0  0  0  0  0
   -0.6865   -7.3137    3.6239 C   0  0  0  0  0  0  0  0  0  0  0  0
   -1.9397   -7.9080    3.6241 N   0  0  0  0  0  0  0  0  0  0  0  0
   -1.7718   -9.0399    2.9312 C   0  0  0  0  0  0  0  0  0  0  0  0
   -0.5117   -9.2185    2.4715 O   0  0  0  0  0  0  0  0  0  0  0  0
    2.3952   -6.9854    2.2126 C   0  0  0  0  0  0  0  0  0  0  0  0
    2.2243   -5.5858    2.0757 C   0  0  0  0  0  0  0  0  0  0  0  0
    3.2309   -4.7440    1.7360 N   0  0  0  0  0  0  0  0  0  0  0  0
    4.4609   -5.3279    1.4862 C   0  0  0  0  0  0  0  0  0  0  0  0
    6.9907   -3.0463   -0.1999 C   0  0  0  0  0  0  0  0  0  0  0  0
    6.6172   -1.9260   -0.9708 O   0  0  0  0  0  0  0  0  0  0  0  0
    2.0998  -10.1235    2.7110 H   0  0  0  0  0  0  0  0  0  0  0  0
    3.8112    0.3266   -3.1729 H   0  0  0  0  0  0  0  0  0  0  0  0
    4.7568    0.1386   -0.7564 H   0  0  0  0  0  0  0  0  0  0  0  0
    4.1013   -3.6662   -2.1605 H   0  0  0  0  0  0  0  0  0  0  0  0
    5.7326   -3.3526   -2.8339 H   0  0  0  0  0  0  0  0  0  0  0  0
    4.2548   -1.7977    0.8090 H   0  0  0  0  0  0  0  0  0  0  0  0
    3.8003   -3.2247   -0.0971 H   0  0  0  0  0  0  0  0  0  0  0  0
    6.0752   -2.7806    1.7547 H   0  0  0  0  0  0  0  0  0  0  0  0
    7.6188   -5.4756    0.7276 H   0  0  0  0  0  0  0  0  0  0  0  0
    6.4757   -7.8993    1.3236 H   0  0  0  0  0  0  0  0  0  0  0  0
   -0.5213   -6.4007    4.1737 H   0  0  0  0  0  0  0  0  0  0  0  0
   -2.5295   -9.7824    2.7552 H   0  0  0  0  0  0  0  0  0  0  0  0
    1.2586   -5.1261    2.2212 H   0  0  0  0  0  0  0  0  0  0  0  0
    7.9593   -2.9043    0.2759 H   0  0  0  0  0  0  0  0  0  0  0  0
    7.0667   -3.8743   -0.9021 H   0  0  0  0  0  0  0  0  0  0  0  0
  1  2  2  0
  2  6  1  0
  2  3  1  0
  3  4  2  0
  3 29  1  0
  4  5  1  0
  4 30  1  0
  5 27  1  1
  5  6  1  0
  5  7  1  0
  6 31  1  0
  6 32  1  0
  7  8  1  0
  7 33  1  0
  7 34  1  0
  8  9  1  0
  8 26  1  0
  8 35  1  1
  9 25  1  0
  9 10  1  0
 10 11  2  0
 10 36  1  0
 11 12  1  0
 11 37  1  0
 12 25  2  0
 12 13  1  0
 13 22  1  0
 13 14  2  0
 14 15  1  0
 15 28  1  0
 15 16  1  0
 16 17  1  0
 16 22  2  0
 17 21  1  0
 17 18  2  0
 18 19  1  0
 18 38  1  0
 19 20  2  0
 20 21  1  0
 20 39  1  0
 22 23  1  0
 23 24  2  0
 23 40  1  0
 24 25  1  0
 26 27  1  0
 26 41  1  0
 26 42  1  0
M  END
>  <i_m_ct_stereo_status>  (23) 
1

>  <s_m_source_file>  (23) 
/var/tmp/pbs.5083858.sched01/tmp89x1fiek/50k1xxx4n.sdf

>  <i_m_source_file_index>  (23) 
4

>  <i_lp_mmshare_version>  (23) 
48012

>  <i_f3d_flags>  (23) 
0

>  <s_epik_input>  (23) 
Tz1DKFtDSDJdMSlbQ0hdPVtDSF1bQ0BAXTEyW0NIMl1bQ0BIXShbQ0gyXU8yKW4oW2NIXVtjSF0zKWM0bltjSF1jKGM1YzM0KWMoW25IXW41KS1jNltjSF1uW2NIXW82

>  <s_epik_cmdline>  (23) 
J2VwaWtfcHl0aG9uJywgJy1waHQnLCAnMi4wJywgJy1waCcsICc3LjAnLCAnLXRuJywgJzgnLCAnLW1hJywgJzIwMCcsICctaW1hZScsICc8aW5maWxlLm1hZT4nLCAnLW9tYWUnLCAnPG91dGZpbGUubWFlPic=

>  <r_lp_tautomer_probability>  (23) 
1

>  <r_epik_Ionization_Penalty>  (23) 
0.000287802

>  <r_epik_Ionization_Penalty_Charging>  (23) 
0

>  <r_epik_Ionization_Penalty_Neutral>  (23) 
0.000287802

>  <r_epik_State_Penalty>  (23) 
-0

>  <r_epik_Charging_Adjusted_Penalty>  (23) 
0

>  <i_epik_Tot_Q>  (23) 
0

>  <i_epik_Tot_abs_Q>  (23) 
0

>  <s_lp_Force_Field>  (23) 
OPLS3e

>  <r_lp_Energy>  (23) 
10.0345

>  <b_lp_Chiralities_Consistent>  (23) 
1

>  <s_lp_Variant>  (23) 
5:0-1

>  <s_i_glide_gridfile>  (23) 
pfpi4k_grid

>  <i_i_glide_lignum>  (23) 
4

>  <i_i_glide_rotatable_bonds>  (23) 
2

>  <r_i_docking_score>  (23) 
-4.65195

>  <r_i_glide_ligand_efficiency>  (23) 
-0.172294

>  <r_i_glide_ligand_efficiency_sa>  (23) 
-0.516883

>  <r_i_glide_ligand_efficiency_ln>  (23) 
-1.0829

>  <r_i_glide_gscore>  (23) 
-4.65195

>  <r_i_glide_lipo>  (23) 
-0.665748

>  <r_i_glide_hbond>  (23) 
-0.48

>  <r_i_glide_metal>  (23) 
-0

>  <r_i_glide_rewards>  (23) 
-1.26541

>  <r_i_glide_evdw>  (23) 
-33.4061

>  <r_i_glide_ecoul>  (23) 
-5.76266

>  <r_i_glide_erotb>  (23) 
0.29392

>  <r_i_glide_esite>  (23) 
0

>  <r_i_glide_emodel>  (23) 
-47.1262

>  <r_i_glide_energy>  (23) 
-39.1688

>  <r_i_glide_einternal>  (23) 
5.50728

>  <r_i_glide_intrahb_reward>  (23) 
-0

>  <i_i_glide_confnum>  (23) 
2

>  <i_i_glide_posenum>  (23) 
31

>  <r_i_glide_eff_state_penalty>  (23) 
0

>  <ligand_id>  (23) 
5

>  <original_smiles>  (23) 
O=C1C=CC2(C1)CC(n1ccc3c4n[nH]c(-c5cnco5)c4cnc31)CO2

>  <smiles>  (23) 
[H]C1=C([H])C2(OC([H])([H])C([H])(n3c([H])c([H])c4c5nn([H])c(-c6oc([H])nc6[H])c5c([H])nc43)C2([H])[H])C([H])([H])C1=O

$$$$
5:0:2
     RDKit          3D

 42 47  0  0  1  0  0  0  0  0999 V2000
   -1.7327   -7.1589    4.0323 O   0  0  0  0  0  0  0  0  0  0  0  0
   -0.6072   -7.6024    3.7944 C   0  0  0  0  0  0  0  0  0  0  0  0
   -0.2711   -8.9305    3.2961 C   0  0  0  0  0  0  0  0  0  0  0  0
    1.0525   -9.0053    3.1186 C   0  0  0  0  0  0  0  0  0  0  0  0
    1.7763   -7.7555    3.5438 C   0  0  2  0  0  0  0  0  0  0  0  0
    0.6363   -6.7880    3.9349 C   0  0  0  0  0  0  0  0  0  0  0  0
    2.7058   -7.2067    2.4645 C   0  0  0  0  0  0  0  0  0  0  0  0
    3.9418   -6.7553    3.2486 C   0  0  1  0  0  0  0  0  0  0  0  0
    4.2403   -5.3476    3.0603 N   0  0  0  0  0  0  0  0  0  0  0  0
    4.6953   -4.4399    4.0628 C   0  0  0  0  0  0  0  0  0  0  0  0
    4.8630   -3.1917    3.5083 C   0  0  0  0  0  0  0  0  0  0  0  0
    4.5780   -3.2889    2.1597 C   0  0  0  0  0  0  0  0  0  0  0  0
    4.6006   -2.3411    1.1342 C   0  0  0  0  0  0  0  0  0  0  0  0
    4.9389   -1.0417    1.2156 N   0  0  0  0  0  0  0  0  0  0  0  0
    4.7796   -0.6149   -0.0814 N   0  0  0  0  0  0  0  0  0  0  0  0
    4.3615   -1.6224   -0.9306 C   0  0  0  0  0  0  0  0  0  0  0  0
    4.1271   -1.4203   -2.3540 C   0  0  0  0  0  0  0  0  0  0  0  0
    3.9904   -2.2199   -3.4617 C   0  0  0  0  0  0  0  0  0  0  0  0
    3.8166   -1.3834   -4.5689 N   0  0  0  0  0  0  0  0  0  0  0  0
    3.8077   -0.1462   -4.0775 C   0  0  0  0  0  0  0  0  0  0  0  0
    4.0556   -0.1087   -2.7469 O   0  0  0  0  0  0  0  0  0  0  0  0
    4.2523   -2.7495   -0.1303 C   0  0  0  0  0  0  0  0  0  0  0  0
    3.8900   -4.0985   -0.3496 C   0  0  0  0  0  0  0  0  0  0  0  0
    3.8933   -5.0286    0.6357 N   0  0  0  0  0  0  0  0  0  0  0  0
    4.2311   -4.5860    1.9024 C   0  0  0  0  0  0  0  0  0  0  0  0
    3.5894   -7.0695    4.7151 C   0  0  0  0  0  0  0  0  0  0  0  0
    2.5921   -8.0617    4.6661 O   0  0  0  0  0  0  0  0  0  0  0  0
    4.9473    0.3484   -0.3575 H   0  0  0  0  0  0  0  0  0  0  0  0
   -0.9624   -9.7323    3.1566 H   0  0  0  0  0  0  0  0  0  0  0  0
    1.5925   -9.8857    2.7907 H   0  0  0  0  0  0  0  0  0  0  0  0
    0.5645   -5.9401    3.2618 H   0  0  0  0  0  0  0  0  0  0  0  0
    0.7408   -6.4307    4.9546 H   0  0  0  0  0  0  0  0  0  0  0  0
    2.9827   -7.9640    1.7337 H   0  0  0  0  0  0  0  0  0  0  0  0
    2.1779   -6.4230    1.9163 H   0  0  0  0  0  0  0  0  0  0  0  0
    4.8053   -7.3424    2.9307 H   0  0  0  0  0  0  0  0  0  0  0  0
    4.8394   -4.7644    5.0896 H   0  0  0  0  0  0  0  0  0  0  0  0
    5.1735   -2.2767    3.9890 H   0  0  0  0  0  0  0  0  0  0  0  0
    4.0418   -3.2954   -3.5811 H   0  0  0  0  0  0  0  0  0  0  0  0
    3.6857    0.7570   -4.6616 H   0  0  0  0  0  0  0  0  0  0  0  0
    3.5968   -4.4356   -1.3263 H   0  0  0  0  0  0  0  0  0  0  0  0
    4.4443   -7.3938    5.3031 H   0  0  0  0  0  0  0  0  0  0  0  0
    3.1175   -6.2244    5.2155 H   0  0  0  0  0  0  0  0  0  0  0  0
  1  2  2  0
  2  6  1  0
  2  3  1  0
  3  4  2  0
  3 29  1  0
  4  5  1  0
  4 30  1  0
  5 27  1  1
  5  6  1  0
  5  7  1  0
  6 31  1  0
  6 32  1  0
  7  8  1  0
  7 33  1  0
  7 34  1  0
  8  9  1  0
  8 26  1  0
  8 35  1  6
  9 25  1  0
  9 10  1  0
 10 11  2  0
 10 36  1  0
 11 12  1  0
 11 37  1  0
 12 25  2  0
 12 13  1  0
 13 22  1  0
 13 14  2  0
 14 15  1  0
 15 28  1  0
 15 16  1  0
 16 17  1  0
 16 22  2  0
 17 21  1  0
 17 18  2  0
 18 19  1  0
 18 38  1  0
 19 20  2  0
 20 21  1  0
 20 39  1  0
 22 23  1  0
 23 24  2  0
 23 40  1  0
 24 25  1  0
 26 27  1  0
 26 41  1  0
 26 42  1  0
M  END
>  <i_m_ct_stereo_status>  (24) 
1

>  <s_m_source_file>  (24) 
/var/tmp/pbs.5083858.sched01/tmp89x1fiek/50k1xxx4n.sdf

>  <i_m_source_file_index>  (24) 
4

>  <i_lp_mmshare_version>  (24) 
48012

>  <i_f3d_flags>  (24) 
0

>  <s_epik_input>  (24) 
Tz1DKFtDSDJdMSlbQ0hdPVtDSF1bQ0BAXTEyW0NIMl1bQ0BIXShbQ0gyXU8yKW4oW2NIXVtjSF0zKWM0bltjSF1jKGM1YzM0KWMoW25IXW41KS1jNltjSF1uW2NIXW82

>  <s_epik_cmdline>  (24) 
J2VwaWtfcHl0aG9uJywgJy1waHQnLCAnMi4wJywgJy1waCcsICc3LjAnLCAnLXRuJywgJzgnLCAnLW1hJywgJzIwMCcsICctaW1hZScsICc8aW5maWxlLm1hZT4nLCAnLW9tYWUnLCAnPG91dGZpbGUubWFlPic=

>  <r_lp_tautomer_probability>  (24) 
1

>  <r_epik_Ionization_Penalty>  (24) 
0.000287802

>  <r_epik_Ionization_Penalty_Charging>  (24) 
0

>  <r_epik_Ionization_Penalty_Neutral>  (24) 
0.000287802

>  <r_epik_State_Penalty>  (24) 
-0

>  <r_epik_Charging_Adjusted_Penalty>  (24) 
0

>  <i_epik_Tot_Q>  (24) 
0

>  <i_epik_Tot_abs_Q>  (24) 
0

>  <s_lp_Force_Field>  (24) 
OPLS3e

>  <r_lp_Energy>  (24) 
10.0345

>  <b_lp_Chiralities_Consistent>  (24) 
1

>  <s_lp_Variant>  (24) 
5:0-1

>  <s_i_glide_gridfile>  (24) 
pfpi4k_grid

>  <i_i_glide_lignum>  (24) 
4

>  <i_i_glide_rotatable_bonds>  (24) 
2

>  <r_i_docking_score>  (24) 
-4.3261

>  <r_i_glide_ligand_efficiency>  (24) 
-0.160226

>  <r_i_glide_ligand_efficiency_sa>  (24) 
-0.480678

>  <r_i_glide_ligand_efficiency_ln>  (24) 
-1.00705

>  <r_i_glide_gscore>  (24) 
-4.3261

>  <r_i_glide_lipo>  (24) 
-0.491462

>  <r_i_glide_hbond>  (24) 
-0.608

>  <r_i_glide_metal>  (24) 
-0

>  <r_i_glide_rewards>  (24) 
-0.960695

>  <r_i_glide_evdw>  (24) 
-30.9071

>  <r_i_glide_ecoul>  (24) 
-6.40118

>  <r_i_glide_erotb>  (24) 
0.29392

>  <r_i_glide_esite>  (24) 
-0.0543354

>  <r_i_glide_emodel>  (24) 
-45.6062

>  <r_i_glide_energy>  (24) 
-37.3082

>  <r_i_glide_einternal>  (24) 
3.20376

>  <r_i_glide_intrahb_reward>  (24) 
-0

>  <i_i_glide_confnum>  (24) 
2

>  <i_i_glide_posenum>  (24) 
40

>  <r_i_glide_eff_state_penalty>  (24) 
0

>  <ligand_id>  (24) 
5

>  <original_smiles>  (24) 
O=C1C=CC2(C1)CC(n1ccc3c4n[nH]c(-c5cnco5)c4cnc31)CO2

>  <smiles>  (24) 
[H]C1=C([H])C2(OC([H])([H])C([H])(n3c([H])c([H])c4c5nn([H])c(-c6oc([H])nc6[H])c5c([H])nc43)C2([H])[H])C([H])([H])C1=O

$$$$
6:0:0
     RDKit          3D

 36 39  0  0  1  0  0  0  0  0999 V2000
    3.5667   -0.2039   -4.1723 C   0  0  0  0  0  0  0  0  0  0  0  0
    4.2864   -0.9802   -3.2264 O   0  0  0  0  0  0  0  0  0  0  0  0
    3.5083   -1.5789   -2.2254 C   0  0  2  0  0  0  0  0  0  0  0  0
    4.2235   -1.6602   -1.0343 O   0  0  0  0  0  0  0  0  0  0  0  0
    4.4757   -3.0567   -0.3867 C   0  0  2  0  0  0  0  0  0  0  0  0
    5.1720   -3.5408    0.8342 O   0  0  0  0  0  0  0  0  0  0  0  0
    4.7879   -2.7922    2.0574 O   0  0  0  0  0  0  0  0  0  0  0  0
    4.3238   -1.6534    1.5036 C   0  0  1  0  0  0  0  0  0  0  0  0
    3.9678   -0.6808    2.6407 C   0  0  0  0  0  0  0  0  0  0  0  0
    5.7931   -1.2226    0.7101 C   0  0  0  0  0  0  0  0  0  0  0  0
    6.4345   -2.1636   -0.6072 C   0  0  0  0  0  0  0  0  0  0  0  0
    5.5450   -3.4480   -1.2577 C   0  0  2  0  0  0  0  0  0  0  0  0
    4.7462   -3.5949   -2.6051 C   0  0  0  0  0  0  0  0  0  0  0  0
    3.2596   -3.0305   -2.5263 C   0  0  2  0  0  0  0  0  0  0  0  0
    2.4386   -3.2551   -3.8003 C   0  0  0  0  0  0  0  0  0  0  0  0
    2.5019   -3.4929   -1.3451 O   0  0  0  0  0  0  0  0  0  0  0  0
    3.1410   -3.3795   -0.0789 C   0  0  2  0  0  0  0  0  0  0  0  0
    3.0334   -2.1501    0.7959 O   0  0  0  0  0  0  0  0  0  0  0  0
    4.2713    0.2375   -4.8777 H   0  0  0  0  0  0  0  0  0  0  0  0
    3.0238    0.5777   -3.6708 H   0  0  0  0  0  0  0  0  0  0  0  0
    2.8572   -0.8018   -4.7363 H   0  0  0  0  0  0  0  0  0  0  0  0
    2.6039   -1.0090   -1.9990 H   0  0  0  0  0  0  0  0  0  0  0  0
    3.2204   -1.1335    3.2887 H   0  0  0  0  0  0  0  0  0  0  0  0
    3.5786    0.2567    2.2418 H   0  0  0  0  0  0  0  0  0  0  0  0
    4.8504   -0.4605    3.2451 H   0  0  0  0  0  0  0  0  0  0  0  0
    5.6298   -0.2183    0.3125 H   0  0  0  0  0  0  0  0  0  0  0  0
    6.5837   -1.0852    1.4616 H   0  0  0  0  0  0  0  0  0  0  0  0
    6.6721   -1.4866   -1.4322 H   0  0  0  0  0  0  0  0  0  0  0  0
    7.3790   -2.6064   -0.2683 H   0  0  0  0  0  0  0  0  0  0  0  0
    5.9728   -4.4164   -1.0032 H   0  0  0  0  0  0  0  0  0  0  0  0
    5.3096   -3.1628   -3.4387 H   0  0  0  0  0  0  0  0  0  0  0  0
    4.6533   -4.6594   -2.8319 H   0  0  0  0  0  0  0  0  0  0  0  0
    2.9955   -2.9712   -4.6994 H   0  0  0  0  0  0  0  0  0  0  0  0
    1.4989   -2.6964   -3.7674 H   0  0  0  0  0  0  0  0  0  0  0  0
    2.1960   -4.3109   -3.9096 H   0  0  0  0  0  0  0  0  0  0  0  0
    3.0212   -4.2910    0.5130 H   0  0  0  0  0  0  0  0  0  0  0  0
  1  2  1  0
  1 19  1  0
  1 20  1  0
  1 21  1  0
  2  3  1  0
  3 14  1  0
  3  4  1  0
  3 22  1  1
  5  4  1  1
  5 12  1  0
  5 17  1  0
  5  6  1  0
  6  7  1  0
  7  8  1  0
  8 18  1  0
  8  9  1  1
  8 10  1  0
  9 23  1  0
  9 24  1  0
  9 25  1  0
 10 11  1  0
 10 26  1  0
 10 27  1  0
 11 12  1  0
 11 28  1  0
 11 29  1  0
 12 13  1  0
 12 30  1  1
 13 14  1  0
 13 31  1  0
 13 32  1  0
 14 15  1  6
 14 16  1  0
 15 33  1  0
 15 34  1  0
 15 35  1  0
 16 17  1  0
 17 18  1  0
 17 36  1  1
M  END
>  <i_m_ct_stereo_status>  (25) 
1

>  <s_m_source_file>  (25) 
/var/tmp/pbs.5083858.sched01/tmp89x1fiek/50k1xxx4n.sdf

>  <i_m_source_file_index>  (25) 
5

>  <i_lp_mmshare_version>  (25) 
48012

>  <i_f3d_flags>  (25) 
2

>  <s_epik_input>  (25) 
W0NIM11PW0NASF0oTzEpW0NAXShbQ0gyXTIpKFtDSDNdKU9bQ0hdM09bQ0BdKE9PNCkoW0NIM10pW0NIMl1bQ0gyXVtDQEhdMkMxMzQ=

>  <s_epik_cmdline>  (25) 
J2VwaWtfcHl0aG9uJywgJy1waHQnLCAnMi4wJywgJy1waCcsICc3LjAnLCAnLXRuJywgJzgnLCAnLW1hJywgJzIwMCcsICctaW1hZScsICc8aW5maWxlLm1hZT4nLCAnLW9tYWUnLCAnPG91dGZpbGUubWFlPic=

>  <r_lp_tautomer_probability>  (25) 
1

>  <r_epik_Ionization_Penalty>  (25) 
2.23649e-14

>  <r_epik_Ionization_Penalty_Charging>  (25) 
0

>  <r_epik_Ionization_Penalty_Neutral>  (25) 
2.23649e-14

>  <r_epik_State_Penalty>  (25) 
-0

>  <r_epik_Charging_Adjusted_Penalty>  (25) 
0

>  <i_epik_Tot_Q>  (25) 
0

>  <i_epik_Tot_abs_Q>  (25) 
0

>  <s_epik_Chemistry_Notes>  (25) 
This compound contains an acetal/aminal-like group ( X-CH(R)-Y where X, Y are N, S, or O) that may be acid/base labile, releasing an aldehyde.

>  <s_lp_Force_Field>  (25) 
OPLS3e

>  <r_lp_Energy>  (25) 
259.704

>  <b_lp_Chiralities_Consistent>  (25) 
0

>  <s_lp_Variant>  (25) 
6:0-1

>  <s_i_glide_gridfile>  (25) 
pfpi4k_grid

>  <i_i_glide_lignum>  (25) 
5

>  <i_i_glide_rotatable_bonds>  (25) 
1

>  <r_i_docking_score>  (25) 
-3.49004

>  <r_i_glide_ligand_efficiency>  (25) 
-0.193891

>  <r_i_glide_ligand_efficiency_sa>  (25) 
-0.508138

>  <r_i_glide_ligand_efficiency_ln>  (25) 
-0.897096

>  <r_i_glide_gscore>  (25) 
-3.49004

>  <r_i_glide_lipo>  (25) 
-0.678802

>  <r_i_glide_hbond>  (25) 
0

>  <r_i_glide_metal>  (25) 
-0

>  <r_i_glide_rewards>  (25) 
-1.70045

>  <r_i_glide_evdw>  (25) 
-21.2872

>  <r_i_glide_ecoul>  (25) 
0.121104

>  <r_i_glide_erotb>  (25) 
0

>  <r_i_glide_esite>  (25) 
-0.0645937

>  <r_i_glide_emodel>  (25) 
-23.8178

>  <r_i_glide_energy>  (25) 
-21.1661

>  <r_i_glide_einternal>  (25) 
3.37347

>  <r_i_glide_intrahb_reward>  (25) 
-0

>  <i_i_glide_confnum>  (25) 
1

>  <i_i_glide_posenum>  (25) 
23

>  <r_i_glide_eff_state_penalty>  (25) 
0

>  <ligand_id>  (25) 
6

>  <original_smiles>  (25) 
COC1OC23OOC4(C)CCC2CC1(C)OC3O4

>  <smiles>  (25) 
[H]C([H])([H])OC1([H])OC23OOC4(C([H])([H])[H])OC2([H])OC1(C([H])([H])[H])C([H])([H])C3([H])C([H])([H])C4([H])[H]

$$$$
6:0:1
     RDKit          3D

 36 39  0  0  1  0  0  0  0  0999 V2000
    5.3182   -6.2591    0.5697 C   0  0  0  0  0  0  0  0  0  0  0  0
    5.3935   -5.0551    1.3112 O   0  0  0  0  0  0  0  0  0  0  0  0
    4.4401   -4.1235    0.9023 C   0  0  2  0  0  0  0  0  0  0  0  0
    4.7459   -3.5698   -0.3331 O   0  0  0  0  0  0  0  0  0  0  0  0
    4.9275   -2.0340   -0.4564 C   0  0  2  0  0  0  0  0  0  0  0  0
    5.2212   -1.0907   -1.5797 O   0  0  0  0  0  0  0  0  0  0  0  0
    4.3489   -1.2965   -2.7547 O   0  0  0  0  0  0  0  0  0  0  0  0
    3.9669   -2.5883   -2.5617 C   0  0  1  0  0  0  0  0  0  0  0  0
    3.1320   -3.0280   -3.7625 C   0  0  0  0  0  0  0  0  0  0  0  0
    5.5612   -3.2620   -2.5517 C   0  0  0  0  0  0  0  0  0  0  0  0
    6.7246   -2.8948   -1.3046 C   0  0  0  0  0  0  0  0  0  0  0  0
    6.2542   -1.9804    0.0517 C   0  0  2  0  0  0  0  0  0  0  0  0
    5.9734   -2.3839    1.5462 C   0  0  0  0  0  0  0  0  0  0  0  0
    4.4911   -2.9119    1.7851 C   0  0  2  0  0  0  0  0  0  0  0  0
    4.1830   -3.2642    3.2499 C   0  0  0  0  0  0  0  0  0  0  0  0
    3.4456   -2.0428    1.2308 O   0  0  0  0  0  0  0  0  0  0  0  0
    3.5969   -1.6590   -0.1421 C   0  0  2  0  0  0  0  0  0  0  0  0
    3.0724   -2.4646   -1.2918 O   0  0  0  0  0  0  0  0  0  0  0  0
    6.1360   -6.9182    0.8724 H   0  0  0  0  0  0  0  0  0  0  0  0
    5.3877   -6.0960   -0.5104 H   0  0  0  0  0  0  0  0  0  0  0  0
    4.3757   -6.7680    0.7847 H   0  0  0  0  0  0  0  0  0  0  0  0
    3.4381   -4.5585    0.8833 H   0  0  0  0  0  0  0  0  0  0  0  0
    2.2708   -2.3676   -3.8785 H   0  0  0  0  0  0  0  0  0  0  0  0
    2.7698   -4.0454   -3.6351 H   0  0  0  0  0  0  0  0  0  0  0  0
    3.7180   -2.9833   -4.6789 H   0  0  0  0  0  0  0  0  0  0  0  0
    5.4087   -4.3429   -2.5267 H   0  0  0  0  0  0  0  0  0  0  0  0
    6.0327   -3.0838   -3.5124 H   0  0  0  0  0  0  0  0  0  0  0  0
    7.1681   -3.8362   -0.9581 H   0  0  0  0  0  0  0  0  0  0  0  0
    7.5423   -2.3428   -1.7768 H   0  0  0  0  0  0  0  0  0  0  0  0
    6.7004   -0.9790    0.0556 H   0  0  0  0  0  0  0  0  0  0  0  0
    6.7204   -3.0984    1.8908 H   0  0  0  0  0  0  0  0  0  0  0  0
    6.0884   -1.4932    2.1670 H   0  0  0  0  0  0  0  0  0  0  0  0
    4.9318   -3.9477    3.6692 H   0  0  0  0  0  0  0  0  0  0  0  0
    3.1985   -3.7332    3.3423 H   0  0  0  0  0  0  0  0  0  0  0  0
    4.1819   -2.3510    3.8534 H   0  0  0  0  0  0  0  0  0  0  0  0
    3.3647   -0.6046   -0.2614 H   0  0  0  0  0  0  0  0  0  0  0  0
  1  2  1  0
  1 19  1  0
  1 20  1  0
  1 21  1  0
  2  3  1  0
  3 14  1  0
  3  4  1  0
  3 22  1  6
  5  4  1  6
  5 12  1  0
  5 17  1  0
  5  6  1  0
  6  7  1  0
  7  8  1  0
  8 18  1  0
  8  9  1  6
  8 10  1  0
  9 23  1  0
  9 24  1  0
  9 25  1  0
 10 11  1  0
 10 26  1  0
 10 27  1  0
 11 12  1  0
 11 28  1  0
 11 29  1  0
 12 13  1  0
 12 30  1  1
 13 14  1  0
 13 31  1  0
 13 32  1  0
 14 15  1  1
 14 16  1  0
 15 33  1  0
 15 34  1  0
 15 35  1  0
 16 17  1  0
 17 18  1  0
 17 36  1  1
M  END
>  <i_m_ct_stereo_status>  (26) 
1

>  <s_m_source_file>  (26) 
/var/tmp/pbs.5083858.sched01/tmp89x1fiek/50k1xxx4n.sdf

>  <i_m_source_file_index>  (26) 
5

>  <i_lp_mmshare_version>  (26) 
48012

>  <i_f3d_flags>  (26) 
2

>  <s_epik_input>  (26) 
W0NIM11PW0NASF0oTzEpW0NAXShbQ0gyXTIpKFtDSDNdKU9bQ0hdM09bQ0BdKE9PNCkoW0NIM10pW0NIMl1bQ0gyXVtDQEhdMkMxMzQ=

>  <s_epik_cmdline>  (26) 
J2VwaWtfcHl0aG9uJywgJy1waHQnLCAnMi4wJywgJy1waCcsICc3LjAnLCAnLXRuJywgJzgnLCAnLW1hJywgJzIwMCcsICctaW1hZScsICc8aW5maWxlLm1hZT4nLCAnLW9tYWUnLCAnPG91dGZpbGUubWFlPic=

>  <r_lp_tautomer_probability>  (26) 
1

>  <r_epik_Ionization_Penalty>  (26) 
2.23649e-14

>  <r_epik_Ionization_Penalty_Charging>  (26) 
0

>  <r_epik_Ionization_Penalty_Neutral>  (26) 
2.23649e-14

>  <r_epik_State_Penalty>  (26) 
-0

>  <r_epik_Charging_Adjusted_Penalty>  (26) 
0

>  <i_epik_Tot_Q>  (26) 
0

>  <i_epik_Tot_abs_Q>  (26) 
0

>  <s_epik_Chemistry_Notes>  (26) 
This compound contains an acetal/aminal-like group ( X-CH(R)-Y where X, Y are N, S, or O) that may be acid/base labile, releasing an aldehyde.

>  <s_lp_Force_Field>  (26) 
OPLS3e

>  <r_lp_Energy>  (26) 
259.704

>  <b_lp_Chiralities_Consistent>  (26) 
0

>  <s_lp_Variant>  (26) 
6:0-1

>  <s_i_glide_gridfile>  (26) 
pfpi4k_grid

>  <i_i_glide_lignum>  (26) 
5

>  <i_i_glide_rotatable_bonds>  (26) 
1

>  <r_i_docking_score>  (26) 
-3.29256

>  <r_i_glide_ligand_efficiency>  (26) 
-0.18292

>  <r_i_glide_ligand_efficiency_sa>  (26) 
-0.479386

>  <r_i_glide_ligand_efficiency_ln>  (26) 
-0.846336

>  <r_i_glide_gscore>  (26) 
-3.29256

>  <r_i_glide_lipo>  (26) 
-0.655768

>  <r_i_glide_hbond>  (26) 
0

>  <r_i_glide_metal>  (26) 
-0

>  <r_i_glide_rewards>  (26) 
-1.71575

>  <r_i_glide_evdw>  (26) 
-19.1471

>  <r_i_glide_ecoul>  (26) 
0.828563

>  <r_i_glide_erotb>  (26) 
0

>  <r_i_glide_esite>  (26) 
-0.0879751

>  <r_i_glide_emodel>  (26) 
-22.41

>  <r_i_glide_energy>  (26) 
-18.3186

>  <r_i_glide_einternal>  (26) 
0.22991

>  <r_i_glide_intrahb_reward>  (26) 
-0

>  <i_i_glide_confnum>  (26) 
1

>  <i_i_glide_posenum>  (26) 
30

>  <r_i_glide_eff_state_penalty>  (26) 
0

>  <ligand_id>  (26) 
6

>  <original_smiles>  (26) 
COC1OC23OOC4(C)CCC2CC1(C)OC3O4

>  <smiles>  (26) 
[H]C([H])([H])OC1([H])OC23OOC4(C([H])([H])[H])OC2([H])OC1(C([H])([H])[H])C([H])([H])C3([H])C([H])([H])C4([H])[H]

$$$$
6:0:2
     RDKit          3D

 36 39  0  0  1  0  0  0  0  0999 V2000
    7.4136   -3.9326    0.4656 C   0  0  0  0  0  0  0  0  0  0  0  0
    6.3008   -3.8436   -0.4071 O   0  0  0  0  0  0  0  0  0  0  0  0
    5.6339   -2.6268   -0.3157 C   0  0  2  0  0  0  0  0  0  0  0  0
    5.0693   -2.4413    0.9373 O   0  0  0  0  0  0  0  0  0  0  0  0
    3.5415   -2.2109    1.0726 C   0  0  2  0  0  0  0  0  0  0  0  0
    2.6140   -1.9746    2.2176 O   0  0  0  0  0  0  0  0  0  0  0  0
    3.0757   -0.9056    3.1291 O   0  0  0  0  0  0  0  0  0  0  0  0
    4.4046   -0.9063    2.8511 C   0  0  1  0  0  0  0  0  0  0  0  0
    5.0925    0.0891    3.7968 C   0  0  0  0  0  0  0  0  0  0  0  0
    4.6944   -2.5499    3.2864 C   0  0  0  0  0  0  0  0  0  0  0  0
    4.0201   -3.8810    2.3860 C   0  0  0  0  0  0  0  0  0  0  0  0
    3.1806   -3.5840    0.9387 C   0  0  2  0  0  0  0  0  0  0  0  0
    3.5672   -3.8223   -0.5698 C   0  0  0  0  0  0  0  0  0  0  0  0
    4.4178   -2.6259   -1.1815 C   0  0  2  0  0  0  0  0  0  0  0  0
    4.7547   -2.8106   -2.6684 C   0  0  0  0  0  0  0  0  0  0  0  0
    3.8453   -1.2891   -0.9561 O   0  0  0  0  0  0  0  0  0  0  0  0
    3.4790   -0.9772    0.3977 C   0  0  2  0  0  0  0  0  0  0  0  0
    4.4296   -0.3591    1.3877 O   0  0  0  0  0  0  0  0  0  0  0  0
    7.8590   -4.9261    0.3898 H   0  0  0  0  0  0  0  0  0  0  0  0
    7.1402   -3.7772    1.5123 H   0  0  0  0  0  0  0  0  0  0  0  0
    8.1695   -3.1955    0.1921 H   0  0  0  0  0  0  0  0  0  0  0  0
    6.2991   -1.8011   -0.5541 H   0  0  0  0  0  0  0  0  0  0  0  0
    4.6485    1.0733    3.6807 H   0  0  0  0  0  0  0  0  0  0  0  0
    6.1575    0.1426    3.5894 H   0  0  0  0  0  0  0  0  0  0  0  0
    4.9516   -0.2139    4.8317 H   0  0  0  0  0  0  0  0  0  0  0  0
    5.7787   -2.6695    3.2440 H   0  0  0  0  0  0  0  0  0  0  0  0
    4.4571   -2.6851    4.3443 H   0  0  0  0  0  0  0  0  0  0  0  0
    4.8113   -4.6165    2.2044 H   0  0  0  0  0  0  0  0  0  0  0  0
    3.3090   -4.3811    3.0449 H   0  0  0  0  0  0  0  0  0  0  0  0
    2.1218   -3.7976    1.0540 H   0  0  0  0  0  0  0  0  0  0  0  0
    4.0592   -4.7905   -0.7006 H   0  0  0  0  0  0  0  0  0  0  0  0
    2.6415   -3.8787   -1.1511 H   0  0  0  0  0  0  0  0  0  0  0  0
    5.2276   -3.7796   -2.8645 H   0  0  0  0  0  0  0  0  0  0  0  0
    5.4183   -2.0201   -3.0202 H   0  0  0  0  0  0  0  0  0  0  0  0
    3.8428   -2.7535   -3.2685 H   0  0  0  0  0  0  0  0  0  0  0  0
    2.5204   -0.4612    0.4444 H   0  0  0  0  0  0  0  0  0  0  0  0
  1  2  1  0
  1 19  1  0
  1 20  1  0
  1 21  1  0
  2  3  1  0
  3 14  1  0
  3  4  1  0
  3 22  1  6
  5  4  1  1
  5 12  1  0
  5 17  1  0
  5  6  1  0
  6  7  1  0
  7  8  1  0
  8 18  1  0
  8  9  1  1
  8 10  1  0
  9 23  1  0
  9 24  1  0
  9 25  1  0
 10 11  1  0
 10 26  1  0
 10 27  1  0
 11 12  1  0
 11 28  1  0
 11 29  1  0
 12 13  1  0
 12 30  1  1
 13 14  1  0
 13 31  1  0
 13 32  1  0
 14 15  1  6
 14 16  1  0
 15 33  1  0
 15 34  1  0
 15 35  1  0
 16 17  1  0
 17 18  1  0
 17 36  1  6
M  END
>  <i_m_ct_stereo_status>  (27) 
1

>  <s_m_source_file>  (27) 
/var/tmp/pbs.5083858.sched01/tmp89x1fiek/50k1xxx4n.sdf

>  <i_m_source_file_index>  (27) 
5

>  <i_lp_mmshare_version>  (27) 
48012

>  <i_f3d_flags>  (27) 
2

>  <s_epik_input>  (27) 
W0NIM11PW0NASF0oTzEpW0NAXShbQ0gyXTIpKFtDSDNdKU9bQ0hdM09bQ0BdKE9PNCkoW0NIM10pW0NIMl1bQ0gyXVtDQEhdMkMxMzQ=

>  <s_epik_cmdline>  (27) 
J2VwaWtfcHl0aG9uJywgJy1waHQnLCAnMi4wJywgJy1waCcsICc3LjAnLCAnLXRuJywgJzgnLCAnLW1hJywgJzIwMCcsICctaW1hZScsICc8aW5maWxlLm1hZT4nLCAnLW9tYWUnLCAnPG91dGZpbGUubWFlPic=

>  <r_lp_tautomer_probability>  (27) 
1

>  <r_epik_Ionization_Penalty>  (27) 
2.23649e-14

>  <r_epik_Ionization_Penalty_Charging>  (27) 
0

>  <r_epik_Ionization_Penalty_Neutral>  (27) 
2.23649e-14

>  <r_epik_State_Penalty>  (27) 
-0

>  <r_epik_Charging_Adjusted_Penalty>  (27) 
0

>  <i_epik_Tot_Q>  (27) 
0

>  <i_epik_Tot_abs_Q>  (27) 
0

>  <s_epik_Chemistry_Notes>  (27) 
This compound contains an acetal/aminal-like group ( X-CH(R)-Y where X, Y are N, S, or O) that may be acid/base labile, releasing an aldehyde.

>  <s_lp_Force_Field>  (27) 
OPLS3e

>  <r_lp_Energy>  (27) 
259.704

>  <b_lp_Chiralities_Consistent>  (27) 
0

>  <s_lp_Variant>  (27) 
6:0-1

>  <s_i_glide_gridfile>  (27) 
pfpi4k_grid

>  <i_i_glide_lignum>  (27) 
5

>  <i_i_glide_rotatable_bonds>  (27) 
1

>  <r_i_docking_score>  (27) 
-3.00134

>  <r_i_glide_ligand_efficiency>  (27) 
-0.166741

>  <r_i_glide_ligand_efficiency_sa>  (27) 
-0.436986

>  <r_i_glide_ligand_efficiency_ln>  (27) 
-0.77148

>  <r_i_glide_gscore>  (27) 
-3.00134

>  <r_i_glide_lipo>  (27) 
-0.40592

>  <r_i_glide_hbond>  (27) 
0

>  <r_i_glide_metal>  (27) 
-0

>  <r_i_glide_rewards>  (27) 
-1.71643

>  <r_i_glide_evdw>  (27) 
-15.3409

>  <r_i_glide_ecoul>  (27) 
-0.218267

>  <r_i_glide_erotb>  (27) 
0

>  <r_i_glide_esite>  (27) 
-0.0792114

>  <r_i_glide_emodel>  (27) 
-19.3727

>  <r_i_glide_energy>  (27) 
-15.5592

>  <r_i_glide_einternal>  (27) 
0.000316818

>  <r_i_glide_intrahb_reward>  (27) 
-0

>  <i_i_glide_confnum>  (27) 
1

>  <i_i_glide_posenum>  (27) 
25

>  <r_i_glide_eff_state_penalty>  (27) 
0

>  <ligand_id>  (27) 
6

>  <original_smiles>  (27) 
COC1OC23OOC4(C)CCC2CC1(C)OC3O4

>  <smiles>  (27) 
[H]C([H])([H])OC1([H])OC23OOC4(C([H])([H])[H])OC2([H])OC1(C([H])([H])[H])C([H])([H])C3([H])C([H])([H])C4([H])[H]

$$$$
9:0:0
     RDKit          3D

 29 29  0  0  1  0  0  0  0  0999 V2000
    0.1354   -0.2814    3.7576 C   0  0  0  0  0  0  0  0  0  0  0  0
    0.4832    0.6315    2.5602 C   0  0  2  0  0  0  0  0  0  0  0  0
    1.4661   -0.0241    1.6847 N   0  0  0  0  0  0  0  0  0  0  0  0
    2.7310   -0.3570    1.9800 C   0  0  0  0  0  0  0  0  0  0  0  0
    3.2268   -0.1164    3.0877 O   0  0  0  0  0  0  0  0  0  0  0  0
    3.5522   -1.0335    0.8791 C   0  0  0  0  0  0  0  0  0  0  0  0
    5.0790   -0.7800    1.0017 C   0  0  0  0  0  0  0  0  0  0  0  0
    5.8918   -1.8398    0.2480 C   0  0  0  0  0  0  0  0  0  0  0  0
    5.8088   -3.0170    0.6727 O   0  0  0  0  0  0  0  0  0  0  0  0
    6.5884   -1.4593   -0.7210 O   0  0  0  0  0  0  0  0  0  0  0  0
    0.8283    2.0623    3.0006 C   0  0  0  0  0  0  0  0  0  0  0  0
    2.1208    2.6237    2.8166 C   0  0  0  0  0  0  0  0  0  0  0  0
    2.3527    3.9277    3.2920 C   0  0  0  0  0  0  0  0  0  0  0  0
    1.2950    4.6476    3.8942 C   0  0  0  0  0  0  0  0  0  0  0  0
    0.0601    4.1288    4.0606 N   0  0  0  0  0  0  0  0  0  0  0  0
   -0.1689    2.8760    3.6131 C   0  0  0  0  0  0  0  0  0  0  0  0
   -0.6848    0.1220    4.3548 H   0  0  0  0  0  0  0  0  0  0  0  0
    0.9882   -0.4044    4.4254 H   0  0  0  0  0  0  0  0  0  0  0  0
   -0.1688   -1.2794    3.4358 H   0  0  0  0  0  0  0  0  0  0  0  0
   -0.4242    0.7065    1.9609 H   0  0  0  0  0  0  0  0  0  0  0  0
    1.1388   -0.2671    0.7472 H   0  0  0  0  0  0  0  0  0  0  0  0
    3.3286   -2.1031    0.9299 H   0  0  0  0  0  0  0  0  0  0  0  0
    3.2089   -0.6790   -0.1002 H   0  0  0  0  0  0  0  0  0  0  0  0
    5.3363    0.2097    0.6282 H   0  0  0  0  0  0  0  0  0  0  0  0
    5.4194   -0.8137    2.0340 H   0  0  0  0  0  0  0  0  0  0  0  0
    2.9270    2.0895    2.3520 H   0  0  0  0  0  0  0  0  0  0  0  0
    3.3385    4.3493    3.1802 H   0  0  0  0  0  0  0  0  0  0  0  0
    1.4683    5.6616    4.2309 H   0  0  0  0  0  0  0  0  0  0  0  0
   -1.1755    2.5026    3.7481 H   0  0  0  0  0  0  0  0  0  0  0  0
  1  2  1  0
  1 17  1  0
  1 18  1  0
  1 19  1  0
  2  3  1  0
  2 11  1  0
  2 20  1  6
  3  4  1  0
  3 21  1  0
  4  5  2  0
  4  6  1  0
  6  7  1  0
  6 22  1  0
  6 23  1  0
  7  8  1  0
  7 24  1  0
  7 25  1  0
  8  9  2  0
  8 10  1  0
 11 16  2  0
 11 12  1  0
 12 13  2  0
 12 26  1  0
 13 14  1  0
 13 27  1  0
 14 15  2  0
 14 28  1  0
 15 16  1  0
 16 29  1  0
M  CHG  1  10  -1
M  END
>  <i_m_ct_stereo_status>  (28) 
1

>  <s_m_source_file>  (28) 
/var/tmp/pbs.5083858.sched01/tmpfw8pd70r/10ihtek408.sdf

>  <i_m_source_file_index>  (28) 
4

>  <i_lp_mmshare_version>  (28) 
48012

>  <i_f3d_flags>  (28) 
0

>  <s_epik_input>  (28) 
W2NIXTFuW2NIXVtjSF1bY0hdYzFbQ0BIXShbQ0gzXSlbTkhdQyg9TylbQ0gyXVtDSDJdQyg9TylbT0hd

>  <s_epik_cmdline>  (28) 
J2VwaWtfcHl0aG9uJywgJy1waHQnLCAnMi4wJywgJy1waCcsICc3LjAnLCAnLXRuJywgJzgnLCAnLW1hJywgJzIwMCcsICctaW1hZScsICc8aW5maWxlLm1hZT4nLCAnLW9tYWUnLCAnPG91dGZpbGUubWFlPic=

>  <r_epik_Ionization_Penalty>  (28) 
0.0170758

>  <r_epik_Ionization_Penalty_Charging>  (28) 
0.00592055

>  <r_epik_Ionization_Penalty_Neutral>  (28) 
0.0111553

>  <r_epik_State_Penalty>  (28) 
0.00856991

>  <r_epik_Charging_Adjusted_Penalty>  (28) 
0.0144905

>  <i_epik_Tot_Q>  (28) 
-1

>  <i_epik_Tot_abs_Q>  (28) 
1

>  <s_lp_Force_Field>  (28) 
OPLS3e

>  <r_lp_Energy>  (28) 
11.6663

>  <b_lp_Chiralities_Consistent>  (28) 
1

>  <s_lp_Variant>  (28) 
9:0-1

>  <s_i_glide_gridfile>  (28) 
pfpi4k_grid

>  <i_i_glide_lignum>  (28) 
4

>  <i_i_glide_rotatable_bonds>  (28) 
6

>  <r_i_docking_score>  (28) 
-2.98037

>  <r_i_glide_ligand_efficiency>  (28) 
-0.186273

>  <r_i_glide_ligand_efficiency_sa>  (28) 
-0.469378

>  <r_i_glide_ligand_efficiency_ln>  (28) 
-0.790006

>  <r_i_glide_gscore>  (28) 
-2.98037

>  <r_i_glide_lipo>  (28) 
-0.137614

>  <r_i_glide_hbond>  (28) 
-0.31983

>  <r_i_glide_metal>  (28) 
-0

>  <r_i_glide_rewards>  (28) 
-1.96351

>  <r_i_glide_evdw>  (28) 
-16.4224

>  <r_i_glide_ecoul>  (28) 
-6.57914

>  <r_i_glide_erotb>  (28) 
1.37898

>  <r_i_glide_esite>  (28) 
-0.130401

>  <r_i_glide_emodel>  (28) 
-28.348

>  <r_i_glide_energy>  (28) 
-23.0015

>  <r_i_glide_einternal>  (28) 
2.0921

>  <r_i_glide_intrahb_reward>  (28) 
-0

>  <i_i_glide_confnum>  (28) 
1

>  <i_i_glide_posenum>  (28) 
17

>  <r_i_glide_eff_state_penalty>  (28) 
0

>  <ligand_id>  (28) 
9

>  <original_smiles>  (28) 
CC(NC(=O)CCC(=O)O)c1cccnc1

>  <smiles>  (28) 
[H]c1nc([H])c(C([H])(N([H])C(=O)C([H])([H])C([H])([H])C(=O)[O-])C([H])([H])[H])c([H])c1[H]

$$$$
9:0:1
     RDKit          3D

 29 29  0  0  1  0  0  0  0  0999 V2000
   -0.3805    1.2858    1.8741 C   0  0  0  0  0  0  0  0  0  0  0  0
    0.8080    0.6855    2.6421 C   0  0  2  0  0  0  0  0  0  0  0  0
    1.7787    0.1527    1.6802 N   0  0  0  0  0  0  0  0  0  0  0  0
    3.0881   -0.0301    1.9116 C   0  0  0  0  0  0  0  0  0  0  0  0
    3.5963    0.1466    3.0198 O   0  0  0  0  0  0  0  0  0  0  0  0
    3.9558   -0.4660    0.7207 C   0  0  0  0  0  0  0  0  0  0  0  0
    5.2446   -1.2272    1.1297 C   0  0  0  0  0  0  0  0  0  0  0  0
    6.1974   -1.4617   -0.0475 C   0  0  0  0  0  0  0  0  0  0  0  0
    7.3545   -1.8429    0.2231 O   0  0  0  0  0  0  0  0  0  0  0  0
    5.7974   -1.2373   -1.2128 O   0  0  0  0  0  0  0  0  0  0  0  0
    0.3358   -0.3140    3.7028 C   0  0  0  0  0  0  0  0  0  0  0  0
    0.6944   -1.6812    3.6753 C   0  0  0  0  0  0  0  0  0  0  0  0
    0.2243   -2.5331    4.6916 C   0  0  0  0  0  0  0  0  0  0  0  0
   -0.5926   -1.9869    5.6978 C   0  0  0  0  0  0  0  0  0  0  0  0
   -0.9605   -0.6916    5.7371 N   0  0  0  0  0  0  0  0  0  0  0  0
   -0.4895    0.1199    4.7646 C   0  0  0  0  0  0  0  0  0  0  0  0
   -1.0858    1.7919    2.5347 H   0  0  0  0  0  0  0  0  0  0  0  0
   -0.9363    0.5237    1.3338 H   0  0  0  0  0  0  0  0  0  0  0  0
   -0.0462    2.0209    1.1409 H   0  0  0  0  0  0  0  0  0  0  0  0
    1.2870    1.5097    3.1777 H   0  0  0  0  0  0  0  0  0  0  0  0
    1.4336   -0.0518    0.7418 H   0  0  0  0  0  0  0  0  0  0  0  0
    3.3577   -1.0882    0.0510 H   0  0  0  0  0  0  0  0  0  0  0  0
    4.2145    0.4343    0.1604 H   0  0  0  0  0  0  0  0  0  0  0  0
    5.7973   -0.6715    1.8886 H   0  0  0  0  0  0  0  0  0  0  0  0
    4.9894   -2.1947    1.5660 H   0  0  0  0  0  0  0  0  0  0  0  0
    1.3039   -2.0930    2.8872 H   0  0  0  0  0  0  0  0  0  0  0  0
    0.4786   -3.5809    4.6954 H   0  0  0  0  0  0  0  0  0  0  0  0
   -0.9669   -2.6114    6.4962 H   0  0  0  0  0  0  0  0  0  0  0  0
   -0.7938    1.1550    4.8379 H   0  0  0  0  0  0  0  0  0  0  0  0
  1  2  1  0
  1 17  1  0
  1 18  1  0
  1 19  1  0
  2  3  1  0
  2 11  1  0
  2 20  1  1
  3  4  1  0
  3 21  1  0
  4  5  2  0
  4  6  1  0
  6  7  1  0
  6 22  1  0
  6 23  1  0
  7  8  1  0
  7 24  1  0
  7 25  1  0
  8  9  2  0
  8 10  1  0
 11 16  2  0
 11 12  1  0
 12 13  2  0
 12 26  1  0
 13 14  1  0
 13 27  1  0
 14 15  2  0
 14 28  1  0
 15 16  1  0
 16 29  1  0
M  CHG  1  10  -1
M  END
>  <i_m_ct_stereo_status>  (29) 
1

>  <s_m_source_file>  (29) 
/var/tmp/pbs.5083858.sched01/tmpfw8pd70r/10ihtek408.sdf

>  <i_m_source_file_index>  (29) 
4

>  <i_lp_mmshare_version>  (29) 
48012

>  <i_f3d_flags>  (29) 
0

>  <s_epik_input>  (29) 
W2NIXTFuW2NIXVtjSF1bY0hdYzFbQ0BIXShbQ0gzXSlbTkhdQyg9TylbQ0gyXVtDSDJdQyg9TylbT0hd

>  <s_epik_cmdline>  (29) 
J2VwaWtfcHl0aG9uJywgJy1waHQnLCAnMi4wJywgJy1waCcsICc3LjAnLCAnLXRuJywgJzgnLCAnLW1hJywgJzIwMCcsICctaW1hZScsICc8aW5maWxlLm1hZT4nLCAnLW9tYWUnLCAnPG91dGZpbGUubWFlPic=

>  <r_epik_Ionization_Penalty>  (29) 
0.0170758

>  <r_epik_Ionization_Penalty_Charging>  (29) 
0.00592055

>  <r_epik_Ionization_Penalty_Neutral>  (29) 
0.0111553

>  <r_epik_State_Penalty>  (29) 
0.00856991

>  <r_epik_Charging_Adjusted_Penalty>  (29) 
0.0144905

>  <i_epik_Tot_Q>  (29) 
-1

>  <i_epik_Tot_abs_Q>  (29) 
1

>  <s_lp_Force_Field>  (29) 
OPLS3e

>  <r_lp_Energy>  (29) 
11.6663

>  <b_lp_Chiralities_Consistent>  (29) 
1

>  <s_lp_Variant>  (29) 
9:0-1

>  <s_i_glide_gridfile>  (29) 
pfpi4k_grid

>  <i_i_glide_lignum>  (29) 
4

>  <i_i_glide_rotatable_bonds>  (29) 
6

>  <r_i_docking_score>  (29) 
-2.65905

>  <r_i_glide_ligand_efficiency>  (29) 
-0.166191

>  <r_i_glide_ligand_efficiency_sa>  (29) 
-0.418775

>  <r_i_glide_ligand_efficiency_ln>  (29) 
-0.704835

>  <r_i_glide_gscore>  (29) 
-2.65905

>  <r_i_glide_lipo>  (29) 
-0.200049

>  <r_i_glide_hbond>  (29) 
-0.298042

>  <r_i_glide_metal>  (29) 
-0

>  <r_i_glide_rewards>  (29) 
-1.90069

>  <r_i_glide_evdw>  (29) 
-16.9763

>  <r_i_glide_ecoul>  (29) 
-4.64807

>  <r_i_glide_erotb>  (29) 
1.37898

>  <r_i_glide_esite>  (29) 
-0.0932247

>  <r_i_glide_emodel>  (29) 
-27.2588

>  <r_i_glide_energy>  (29) 
-21.6244

>  <r_i_glide_einternal>  (29) 
1.29117

>  <r_i_glide_intrahb_reward>  (29) 
-0

>  <i_i_glide_confnum>  (29) 
5

>  <i_i_glide_posenum>  (29) 
5

>  <r_i_glide_eff_state_penalty>  (29) 
0

>  <ligand_id>  (29) 
9

>  <original_smiles>  (29) 
CC(NC(=O)CCC(=O)O)c1cccnc1

>  <smiles>  (29) 
[H]c1nc([H])c(C([H])(N([H])C(=O)C([H])([H])C([H])([H])C(=O)[O-])C([H])([H])[H])c([H])c1[H]

$$$$
9:0:2
     RDKit          3D

 29 29  0  0  1  0  0  0  0  0999 V2000
    0.4801   -0.4140    3.7733 C   0  0  0  0  0  0  0  0  0  0  0  0
    0.7117    0.5536    2.5848 C   0  0  2  0  0  0  0  0  0  0  0  0
    1.7370    0.0316    1.6768 N   0  0  0  0  0  0  0  0  0  0  0  0
    3.0342   -0.1813    1.9505 C   0  0  0  0  0  0  0  0  0  0  0  0
    3.5006   -0.0921    3.0903 O   0  0  0  0  0  0  0  0  0  0  0  0
    3.9469   -0.4992    0.7670 C   0  0  0  0  0  0  0  0  0  0  0  0
    5.2425   -1.2259    1.2082 C   0  0  0  0  0  0  0  0  0  0  0  0
    6.2197   -1.4572    0.0549 C   0  0  0  0  0  0  0  0  0  0  0  0
    7.3870   -1.7781    0.3574 O   0  0  0  0  0  0  0  0  0  0  0  0
    5.8187   -1.2940   -1.1234 O   0  0  0  0  0  0  0  0  0  0  0  0
    0.8915    2.0063    3.0390 C   0  0  0  0  0  0  0  0  0  0  0  0
    2.1051    2.7300    2.8788 C   0  0  0  0  0  0  0  0  0  0  0  0
    2.1909    4.0444    3.3685 C   0  0  0  0  0  0  0  0  0  0  0  0
    1.0489    4.6293    3.9616 C   0  0  0  0  0  0  0  0  0  0  0  0
   -0.1204    3.9711    4.0925 N   0  0  0  0  0  0  0  0  0  0  0  0
   -0.1945    2.7014    3.6418 C   0  0  0  0  0  0  0  0  0  0  0  0
   -0.3755   -0.1160    4.3794 H   0  0  0  0  0  0  0  0  0  0  0  0
    1.3427   -0.4442    4.4335 H   0  0  0  0  0  0  0  0  0  0  0  0
    0.2922   -1.4323    3.4336 H   0  0  0  0  0  0  0  0  0  0  0  0
   -0.2102    0.5349    1.9948 H   0  0  0  0  0  0  0  0  0  0  0  0
    1.4284   -0.1872    0.7301 H   0  0  0  0  0  0  0  0  0  0  0  0
    3.4033   -1.0905    0.0199 H   0  0  0  0  0  0  0  0  0  0  0  0
    4.2123    0.4542    0.2945 H   0  0  0  0  0  0  0  0  0  0  0  0
    5.7656   -0.6446    1.9713 H   0  0  0  0  0  0  0  0  0  0  0  0
    4.9848   -2.1820    1.6624 H   0  0  0  0  0  0  0  0  0  0  0  0
    2.9921    2.3117    2.4120 H   0  0  0  0  0  0  0  0  0  0  0  0
    3.1187    4.5778    3.2744 H   0  0  0  0  0  0  0  0  0  0  0  0
    1.0975    5.6500    4.3173 H   0  0  0  0  0  0  0  0  0  0  0  0
   -1.1531    2.2190    3.7735 H   0  0  0  0  0  0  0  0  0  0  0  0
  1  2  1  0
  1 17  1  0
  1 18  1  0
  1 19  1  0
  2  3  1  0
  2 11  1  0
  2 20  1  6
  3  4  1  0
  3 21  1  0
  4  5  2  0
  4  6  1  0
  6  7  1  0
  6 22  1  0
  6 23  1  0
  7  8  1  0
  7 24  1  0
  7 25  1  0
  8  9  2  0
  8 10  1  0
 11 16  2  0
 11 12  1  0
 12 13  2  0
 12 26  1  0
 13 14  1  0
 13 27  1  0
 14 15  2  0
 14 28  1  0
 15 16  1  0
 16 29  1  0
M  CHG  1  10  -1
M  END
>  <i_m_ct_stereo_status>  (30) 
1

>  <s_m_source_file>  (30) 
/var/tmp/pbs.5083858.sched01/tmpfw8pd70r/10ihtek408.sdf

>  <i_m_source_file_index>  (30) 
4

>  <i_lp_mmshare_version>  (30) 
48012

>  <i_f3d_flags>  (30) 
0

>  <s_epik_input>  (30) 
W2NIXTFuW2NIXVtjSF1bY0hdYzFbQ0BIXShbQ0gzXSlbTkhdQyg9TylbQ0gyXVtDSDJdQyg9TylbT0hd

>  <s_epik_cmdline>  (30) 
J2VwaWtfcHl0aG9uJywgJy1waHQnLCAnMi4wJywgJy1waCcsICc3LjAnLCAnLXRuJywgJzgnLCAnLW1hJywgJzIwMCcsICctaW1hZScsICc8aW5maWxlLm1hZT4nLCAnLW9tYWUnLCAnPG91dGZpbGUubWFlPic=

>  <r_epik_Ionization_Penalty>  (30) 
0.0170758

>  <r_epik_Ionization_Penalty_Charging>  (30) 
0.00592055

>  <r_epik_Ionization_Penalty_Neutral>  (30) 
0.0111553

>  <r_epik_State_Penalty>  (30) 
0.00856991

>  <r_epik_Charging_Adjusted_Penalty>  (30) 
0.0144905

>  <i_epik_Tot_Q>  (30) 
-1

>  <i_epik_Tot_abs_Q>  (30) 
1

>  <s_lp_Force_Field>  (30) 
OPLS3e

>  <r_lp_Energy>  (30) 
11.6663

>  <b_lp_Chiralities_Consistent>  (30) 
1

>  <s_lp_Variant>  (30) 
9:0-1

>  <s_i_glide_gridfile>  (30) 
pfpi4k_grid

>  <i_i_glide_lignum>  (30) 
4

>  <i_i_glide_rotatable_bonds>  (30) 
6

>  <r_i_docking_score>  (30) 
-2.64213

>  <r_i_glide_ligand_efficiency>  (30) 
-0.165133

>  <r_i_glide_ligand_efficiency_sa>  (30) 
-0.416109

>  <r_i_glide_ligand_efficiency_ln>  (30) 
-0.700349

>  <r_i_glide_gscore>  (30) 
-2.64213

>  <r_i_glide_lipo>  (30) 
-0.154762

>  <r_i_glide_hbond>  (30) 
-0.268851

>  <r_i_glide_metal>  (30) 
-0

>  <r_i_glide_rewards>  (30) 
-1.90069

>  <r_i_glide_evdw>  (30) 
-17.718

>  <r_i_glide_ecoul>  (30) 
-4.71373

>  <r_i_glide_erotb>  (30) 
1.37898

>  <r_i_glide_esite>  (30) 
-0.10385

>  <r_i_glide_emodel>  (30) 
-27.9794

>  <r_i_glide_energy>  (30) 
-22.4317

>  <r_i_glide_einternal>  (30) 
0.609647

>  <r_i_glide_intrahb_reward>  (30) 
-0

>  <i_i_glide_confnum>  (30) 
1

>  <i_i_glide_posenum>  (30) 
6

>  <r_i_glide_eff_state_penalty>  (30) 
0

>  <ligand_id>  (30) 
9

>  <original_smiles>  (30) 
CC(NC(=O)CCC(=O)O)c1cccnc1

>  <smiles>  (30) 
[H]c1nc([H])c(C([H])(N([H])C(=O)C([H])([H])C([H])([H])C(=O)[O-])C([H])([H])[H])c([H])c1[H]

$$$$
9:1:0
     RDKit          3D

 30 30  0  0  1  0  0  0  0  0999 V2000
   -0.8726   -8.2742    2.3532 C   0  0  0  0  0  0  0  0  0  0  0  0
   -0.5164   -8.7743    3.7711 C   0  0  2  0  0  0  0  0  0  0  0  0
   -0.4748   -7.7502    4.8282 N   0  0  0  0  0  0  0  0  0  0  0  0
   -0.0870   -6.4728    4.7379 C   0  0  0  0  0  0  0  0  0  0  0  0
    0.3595   -5.9999    3.6938 O   0  0  0  0  0  0  0  0  0  0  0  0
   -0.2662   -5.5923    5.9991 C   0  0  0  0  0  0  0  0  0  0  0  0
   -0.1839   -4.0748    5.6312 C   0  0  0  0  0  0  0  0  0  0  0  0
   -0.9747   -3.1834    6.5863 C   0  0  0  0  0  0  0  0  0  0  0  0
   -1.6333   -2.2487    6.0630 O   0  0  0  0  0  0  0  0  0  0  0  0
   -0.9533   -3.4616    7.8011 O   0  0  0  0  0  0  0  0  0  0  0  0
    0.6948   -9.7213    3.8413 C   0  0  0  0  0  0  0  0  0  0  0  0
    1.6420   -9.7878    2.8001 C   0  0  0  0  0  0  0  0  0  0  0  0
    2.7371  -10.6437    2.9056 C   0  0  0  0  0  0  0  0  0  0  0  0
    2.8790  -11.4705    4.0391 C   0  0  0  0  0  0  0  0  0  0  0  0
    1.9491  -11.4145    5.0138 N   0  0  0  0  0  0  0  0  0  0  0  0
    0.8786  -10.5804    4.9521 C   0  0  0  0  0  0  0  0  0  0  0  0
   -1.1142   -9.1433    1.7031 H   0  0  0  0  0  0  0  0  0  0  0  0
   -0.0946   -7.7050    1.8795 H   0  0  0  0  0  0  0  0  0  0  0  0
   -1.7704   -7.6580    2.3307 H   0  0  0  0  0  0  0  0  0  0  0  0
   -1.3701   -9.3837    4.0638 H   0  0  0  0  0  0  0  0  0  0  0  0
   -0.8252   -8.0598    5.7218 H   0  0  0  0  0  0  0  0  0  0  0  0
   -1.2108   -5.8400    6.4970 H   0  0  0  0  0  0  0  0  0  0  0  0
    0.5208   -5.8279    6.7201 H   0  0  0  0  0  0  0  0  0  0  0  0
    0.8648   -3.7688    5.6014 H   0  0  0  0  0  0  0  0  0  0  0  0
   -0.5680   -3.8487    4.6380 H   0  0  0  0  0  0  0  0  0  0  0  0
    1.5683   -9.1903    1.9026 H   0  0  0  0  0  0  0  0  0  0  0  0
    3.4711  -10.6708    2.1019 H   0  0  0  0  0  0  0  0  0  0  0  0
    3.6946  -12.1750    4.1642 H   0  0  0  0  0  0  0  0  0  0  0  0
    0.2123  -10.6485    5.8170 H   0  0  0  0  0  0  0  0  0  0  0  0
    2.0346  -12.0140    5.8499 H   0  0  0  0  0  0  0  0  0  0  0  0
  1  2  1  0
  1 17  1  0
  1 18  1  0
  1 19  1  0
  2  3  1  0
  2 11  1  0
  2 20  1  1
  3  4  1  0
  3 21  1  0
  4  5  2  0
  4  6  1  0
  6  7  1  0
  6 22  1  0
  6 23  1  0
  7  8  1  0
  7 24  1  0
  7 25  1  0
  8  9  2  0
  8 10  1  0
 11 16  2  0
 11 12  1  0
 12 13  2  0
 12 26  1  0
 13 14  1  0
 13 27  1  0
 14 15  2  0
 14 28  1  0
 15 16  1  0
 15 30  1  0
 16 29  1  0
M  CHG  2  10  -1  15   1
M  END
>  <i_m_ct_stereo_status>  (31) 
1

>  <s_m_source_file>  (31) 
/var/tmp/pbs.5083858.sched01/tmpfw8pd70r/10ihtek408.sdf

>  <i_m_source_file_index>  (31) 
5

>  <i_lp_mmshare_version>  (31) 
48012

>  <i_f3d_flags>  (31) 
0

>  <s_epik_input>  (31) 
W2NIXTFuW2NIXVtjSF1bY0hdYzFbQ0BIXShbQ0gzXSlbTkhdQyg9TylbQ0gyXVtDSDJdQyg9TylbT0hd

>  <s_epik_cmdline>  (31) 
J2VwaWtfcHl0aG9uJywgJy1waHQnLCAnMi4wJywgJy1waCcsICc3LjAnLCAnLXRuJywgJzgnLCAnLW1hJywgJzIwMCcsICctaW1hZScsICc8aW5maWxlLm1hZT4nLCAnLW9tYWUnLCAnPG91dGZpbGUubWFlPic=

>  <r_epik_Ionization_Penalty>  (31) 
2.36387

>  <r_epik_Ionization_Penalty_Charging>  (31) 
2.36387

>  <r_epik_Ionization_Penalty_Neutral>  (31) 
1.57094e-08

>  <r_epik_State_Penalty>  (31) 
2.51409

>  <r_epik_Charging_Adjusted_Penalty>  (31) 
4.87796

>  <i_epik_Tot_Q>  (31) 
0

>  <i_epik_Tot_abs_Q>  (31) 
2

>  <s_lp_Force_Field>  (31) 
OPLS3e

>  <r_lp_Energy>  (31) 
12.717

>  <b_lp_Chiralities_Consistent>  (31) 
1

>  <s_lp_Variant>  (31) 
9:0-2

>  <s_i_glide_gridfile>  (31) 
pfpi4k_grid

>  <i_i_glide_lignum>  (31) 
5

>  <i_i_glide_rotatable_bonds>  (31) 
6

>  <r_i_docking_score>  (31) 
-4.19352

>  <r_i_glide_ligand_efficiency>  (31) 
-0.262095

>  <r_i_glide_ligand_efficiency_sa>  (31) 
-0.660437

>  <r_i_glide_ligand_efficiency_ln>  (31) 
-1.11157

>  <r_i_glide_gscore>  (31) 
-4.19352

>  <r_i_glide_lipo>  (31) 
-0.0759736

>  <r_i_glide_hbond>  (31) 
-0.260262

>  <r_i_glide_metal>  (31) 
-0

>  <r_i_glide_rewards>  (31) 
-2.53251

>  <r_i_glide_evdw>  (31) 
-14.8836

>  <r_i_glide_ecoul>  (31) 
-8.97256

>  <r_i_glide_erotb>  (31) 
0.957902

>  <r_i_glide_esite>  (31) 
-0.192608

>  <r_i_glide_emodel>  (31) 
-34.8893

>  <r_i_glide_energy>  (31) 
-23.8562

>  <r_i_glide_einternal>  (31) 
6.20309

>  <r_i_glide_intrahb_reward>  (31) 
-0

>  <i_i_glide_confnum>  (31) 
4

>  <i_i_glide_posenum>  (31) 
7

>  <r_i_glide_eff_state_penalty>  (31) 
0

>  <ligand_id>  (31) 
9

>  <original_smiles>  (31) 
CC(NC(=O)CCC(=O)O)c1cccnc1

>  <smiles>  (31) 
[H]c1c([H])c([H])[n+]([H])c([H])c1C([H])(N([H])C(=O)C([H])([H])C([H])([H])C(=O)[O-])C([H])([H])[H]

$$$$
9:1:1
     RDKit          3D

 30 30  0  0  1  0  0  0  0  0999 V2000
    0.7448   -7.8031    2.0336 C   0  0  0  0  0  0  0  0  0  0  0  0
    0.0714   -8.5133    3.2294 C   0  0  2  0  0  0  0  0  0  0  0  0
   -0.4705   -7.5684    4.2244 N   0  0  0  0  0  0  0  0  0  0  0  0
    0.1336   -6.4887    4.7653 C   0  0  0  0  0  0  0  0  0  0  0  0
    1.2494   -6.0925    4.4264 O   0  0  0  0  0  0  0  0  0  0  0  0
   -0.6152   -5.7476    5.8708 C   0  0  0  0  0  0  0  0  0  0  0  0
   -0.1404   -4.2708    5.9658 C   0  0  0  0  0  0  0  0  0  0  0  0
   -1.0181   -3.4546    6.9071 C   0  0  0  0  0  0  0  0  0  0  0  0
   -0.5849   -3.2137    8.0587 O   0  0  0  0  0  0  0  0  0  0  0  0
   -2.1183   -3.0502    6.4780 O   0  0  0  0  0  0  0  0  0  0  0  0
    0.9745   -9.5944    3.8293 C   0  0  0  0  0  0  0  0  0  0  0  0
    1.8521   -9.3184    4.9054 C   0  0  0  0  0  0  0  0  0  0  0  0
    2.6739  -10.3347    5.4191 C   0  0  0  0  0  0  0  0  0  0  0  0
    2.6109  -11.6174    4.8526 C   0  0  0  0  0  0  0  0  0  0  0  0
    1.7700  -11.8565    3.8276 N   0  0  0  0  0  0  0  0  0  0  0  0
    0.9628  -10.9062    3.2984 C   0  0  0  0  0  0  0  0  0  0  0  0
    1.0351   -8.5149    1.2615 H   0  0  0  0  0  0  0  0  0  0  0  0
    1.6713   -7.3049    2.3144 H   0  0  0  0  0  0  0  0  0  0  0  0
    0.0800   -7.0621    1.5889 H   0  0  0  0  0  0  0  0  0  0  0  0
   -0.8037   -9.0301    2.8274 H   0  0  0  0  0  0  0  0  0  0  0  0
   -1.3737   -7.8217    4.6044 H   0  0  0  0  0  0  0  0  0  0  0  0
   -1.6899   -5.8484    5.6931 H   0  0  0  0  0  0  0  0  0  0  0  0
   -0.3844   -6.2558    6.8085 H   0  0  0  0  0  0  0  0  0  0  0  0
    0.8940   -4.2321    6.3148 H   0  0  0  0  0  0  0  0  0  0  0  0
   -0.1473   -3.7910    4.9847 H   0  0  0  0  0  0  0  0  0  0  0  0
    1.9238   -8.3437    5.3533 H   0  0  0  0  0  0  0  0  0  0  0  0
    3.3261  -10.1284    6.2469 H   0  0  0  0  0  0  0  0  0  0  0  0
    3.1840  -12.4574    5.2133 H   0  0  0  0  0  0  0  0  0  0  0  0
    0.3263  -11.2233    2.4820 H   0  0  0  0  0  0  0  0  0  0  0  0
    1.7460  -12.8157    3.4429 H   0  0  0  0  0  0  0  0  0  0  0  0
  1  2  1  0
  1 17  1  0
  1 18  1  0
  1 19  1  0
  2  3  1  0
  2 11  1  0
  2 20  1  6
  3  4  1  0
  3 21  1  0
  4  5  2  0
  4  6  1  0
  6  7  1  0
  6 22  1  0
  6 23  1  0
  7  8  1  0
  7 24  1  0
  7 25  1  0
  8  9  2  0
  8 10  1  0
 11 16  2  0
 11 12  1  0
 12 13  2  0
 12 26  1  0
 13 14  1  0
 13 27  1  0
 14 15  2  0
 14 28  1  0
 15 16  1  0
 15 30  1  0
 16 29  1  0
M  CHG  2  10  -1  15   1
M  END
>  <i_m_ct_stereo_status>  (32) 
1

>  <s_m_source_file>  (32) 
/var/tmp/pbs.5083858.sched01/tmpfw8pd70r/10ihtek408.sdf

>  <i_m_source_file_index>  (32) 
5

>  <i_lp_mmshare_version>  (32) 
48012

>  <i_f3d_flags>  (32) 
0

>  <s_epik_input>  (32) 
W2NIXTFuW2NIXVtjSF1bY0hdYzFbQ0BIXShbQ0gzXSlbTkhdQyg9TylbQ0gyXVtDSDJdQyg9TylbT0hd

>  <s_epik_cmdline>  (32) 
J2VwaWtfcHl0aG9uJywgJy1waHQnLCAnMi4wJywgJy1waCcsICc3LjAnLCAnLXRuJywgJzgnLCAnLW1hJywgJzIwMCcsICctaW1hZScsICc8aW5maWxlLm1hZT4nLCAnLW9tYWUnLCAnPG91dGZpbGUubWFlPic=

>  <r_epik_Ionization_Penalty>  (32) 
2.36387

>  <r_epik_Ionization_Penalty_Charging>  (32) 
2.36387

>  <r_epik_Ionization_Penalty_Neutral>  (32) 
1.57094e-08

>  <r_epik_State_Penalty>  (32) 
2.51409

>  <r_epik_Charging_Adjusted_Penalty>  (32) 
4.87796

>  <i_epik_Tot_Q>  (32) 
0

>  <i_epik_Tot_abs_Q>  (32) 
2

>  <s_lp_Force_Field>  (32) 
OPLS3e

>  <r_lp_Energy>  (32) 
12.717

>  <b_lp_Chiralities_Consistent>  (32) 
1

>  <s_lp_Variant>  (32) 
9:0-2

>  <s_i_glide_gridfile>  (32) 
pfpi4k_grid

>  <i_i_glide_lignum>  (32) 
5

>  <i_i_glide_rotatable_bonds>  (32) 
6

>  <r_i_docking_score>  (32) 
-3.08935

>  <r_i_glide_ligand_efficiency>  (32) 
-0.193085

>  <r_i_glide_ligand_efficiency_sa>  (32) 
-0.486543

>  <r_i_glide_ligand_efficiency_ln>  (32) 
-0.818895

>  <r_i_glide_gscore>  (32) 
-3.08935

>  <r_i_glide_lipo>  (32) 
-0.174602

>  <r_i_glide_hbond>  (32) 
-0.145943

>  <r_i_glide_metal>  (32) 
-0

>  <r_i_glide_rewards>  (32) 
-1.89382

>  <r_i_glide_evdw>  (32) 
-14.2636

>  <r_i_glide_ecoul>  (32) 
-9.35961

>  <r_i_glide_erotb>  (32) 
1.36843

>  <r_i_glide_esite>  (32) 
-0.126305

>  <r_i_glide_emodel>  (32) 
-33.4671

>  <r_i_glide_energy>  (32) 
-23.6232

>  <r_i_glide_einternal>  (32) 
1.75636

>  <r_i_glide_intrahb_reward>  (32) 
-0

>  <i_i_glide_confnum>  (32) 
5

>  <i_i_glide_posenum>  (32) 
16

>  <r_i_glide_eff_state_penalty>  (32) 
0

>  <ligand_id>  (32) 
9

>  <original_smiles>  (32) 
CC(NC(=O)CCC(=O)O)c1cccnc1

>  <smiles>  (32) 
[H]c1c([H])c([H])[n+]([H])c([H])c1C([H])(N([H])C(=O)C([H])([H])C([H])([H])C(=O)[O-])C([H])([H])[H]

$$$$
9:1:2
     RDKit          3D

 30 30  0  0  1  0  0  0  0  0999 V2000
   -0.5453   -8.7467    2.5523 C   0  0  0  0  0  0  0  0  0  0  0  0
    0.0815   -9.3541    3.8273 C   0  0  2  0  0  0  0  0  0  0  0  0
    0.0462   -8.4845    5.0091 N   0  0  0  0  0  0  0  0  0  0  0  0
    0.1543   -7.1451    5.1006 C   0  0  0  0  0  0  0  0  0  0  0  0
    0.2493   -6.3912    4.1311 O   0  0  0  0  0  0  0  0  0  0  0  0
    0.1707   -6.5444    6.5098 C   0  0  0  0  0  0  0  0  0  0  0  0
   -0.6920   -5.2584    6.5746 C   0  0  0  0  0  0  0  0  0  0  0  0
   -0.7525   -4.6768    7.9893 C   0  0  0  0  0  0  0  0  0  0  0  0
   -0.9869   -3.4571    8.0875 O   0  0  0  0  0  0  0  0  0  0  0  0
   -0.5864   -5.4706    8.9405 O   0  0  0  0  0  0  0  0  0  0  0  0
    1.4710   -9.9150    3.5733 C   0  0  0  0  0  0  0  0  0  0  0  0
    2.5553   -9.0488    3.3420 C   0  0  0  0  0  0  0  0  0  0  0  0
    3.8338   -9.5892    3.0906 C   0  0  0  0  0  0  0  0  0  0  0  0
    3.9972  -10.9885    3.0721 C   0  0  0  0  0  0  0  0  0  0  0  0
    2.9369  -11.7985    3.2929 N   0  0  0  0  0  0  0  0  0  0  0  0
    1.6953  -11.3127    3.5462 C   0  0  0  0  0  0  0  0  0  0  0  0
   -0.6480   -9.4879    1.7598 H   0  0  0  0  0  0  0  0  0  0  0  0
    0.0503   -7.9342    2.1496 H   0  0  0  0  0  0  0  0  0  0  0  0
   -1.5427   -8.3691    2.7612 H   0  0  0  0  0  0  0  0  0  0  0  0
   -0.5331  -10.2125    4.0870 H   0  0  0  0  0  0  0  0  0  0  0  0
   -0.0642   -8.9780    5.8817 H   0  0  0  0  0  0  0  0  0  0  0  0
   -0.1445   -7.2886    7.2556 H   0  0  0  0  0  0  0  0  0  0  0  0
    1.2102   -6.2845    6.7340 H   0  0  0  0  0  0  0  0  0  0  0  0
   -0.2983   -4.4978    5.8937 H   0  0  0  0  0  0  0  0  0  0  0  0
   -1.7156   -5.4579    6.2529 H   0  0  0  0  0  0  0  0  0  0  0  0
    2.4044   -7.9819    3.3501 H   0  0  0  0  0  0  0  0  0  0  0  0
    4.6719   -8.9347    2.8932 H   0  0  0  0  0  0  0  0  0  0  0  0
    4.9368  -11.4829    2.8583 H   0  0  0  0  0  0  0  0  0  0  0  0
    0.9364  -12.0638    3.7081 H   0  0  0  0  0  0  0  0  0  0  0  0
    3.0602  -12.8103    3.2455 H   0  0  0  0  0  0  0  0  0  0  0  0
  1  2  1  0
  1 17  1  0
  1 18  1  0
  1 19  1  0
  2  3  1  0
  2 11  1  0
  2 20  1  1
  3  4  1  0
  3 21  1  0
  4  5  2  0
  4  6  1  0
  6  7  1  0
  6 22  1  0
  6 23  1  0
  7  8  1  0
  7 24  1  0
  7 25  1  0
  8  9  2  0
  8 10  1  0
 11 16  2  0
 11 12  1  0
 12 13  2  0
 12 26  1  0
 13 14  1  0
 13 27  1  0
 14 15  2  0
 14 28  1  0
 15 16  1  0
 15 30  1  0
 16 29  1  0
M  CHG  2  10  -1  15   1
M  END
>  <i_m_ct_stereo_status>  (33) 
1

>  <s_m_source_file>  (33) 
/var/tmp/pbs.5083858.sched01/tmpfw8pd70r/10ihtek408.sdf

>  <i_m_source_file_index>  (33) 
5

>  <i_lp_mmshare_version>  (33) 
48012

>  <i_f3d_flags>  (33) 
0

>  <s_epik_input>  (33) 
W2NIXTFuW2NIXVtjSF1bY0hdYzFbQ0BIXShbQ0gzXSlbTkhdQyg9TylbQ0gyXVtDSDJdQyg9TylbT0hd

>  <s_epik_cmdline>  (33) 
J2VwaWtfcHl0aG9uJywgJy1waHQnLCAnMi4wJywgJy1waCcsICc3LjAnLCAnLXRuJywgJzgnLCAnLW1hJywgJzIwMCcsICctaW1hZScsICc8aW5maWxlLm1hZT4nLCAnLW9tYWUnLCAnPG91dGZpbGUubWFlPic=

>  <r_epik_Ionization_Penalty>  (33) 
2.36387

>  <r_epik_Ionization_Penalty_Charging>  (33) 
2.36387

>  <r_epik_Ionization_Penalty_Neutral>  (33) 
1.57094e-08

>  <r_epik_State_Penalty>  (33) 
2.51409

>  <r_epik_Charging_Adjusted_Penalty>  (33) 
4.87796

>  <i_epik_Tot_Q>  (33) 
0

>  <i_epik_Tot_abs_Q>  (33) 
2

>  <s_lp_Force_Field>  (33) 
OPLS3e

>  <r_lp_Energy>  (33) 
12.717

>  <b_lp_Chiralities_Consistent>  (33) 
1

>  <s_lp_Variant>  (33) 
9:0-2

>  <s_i_glide_gridfile>  (33) 
pfpi4k_grid

>  <i_i_glide_lignum>  (33) 
5

>  <i_i_glide_rotatable_bonds>  (33) 
6

>  <r_i_docking_score>  (33) 
-3.02612

>  <r_i_glide_ligand_efficiency>  (33) 
-0.189133

>  <r_i_glide_ligand_efficiency_sa>  (33) 
-0.476584

>  <r_i_glide_ligand_efficiency_ln>  (33) 
-0.802134

>  <r_i_glide_gscore>  (33) 
-3.02612

>  <r_i_glide_lipo>  (33) 
-0.249949

>  <r_i_glide_hbond>  (33) 
-0.162636

>  <r_i_glide_metal>  (33) 
-0

>  <r_i_glide_rewards>  (33) 
-1.89382

>  <r_i_glide_evdw>  (33) 
-14.6989

>  <r_i_glide_ecoul>  (33) 
-8.32322

>  <r_i_glide_erotb>  (33) 
1.36843

>  <r_i_glide_esite>  (33) 
-0.104721

>  <r_i_glide_emodel>  (33) 
-32.8881

>  <r_i_glide_energy>  (33) 
-23.0222

>  <r_i_glide_einternal>  (33) 
1.67805

>  <r_i_glide_intrahb_reward>  (33) 
-0

>  <i_i_glide_confnum>  (33) 
5

>  <i_i_glide_posenum>  (33) 
24

>  <r_i_glide_eff_state_penalty>  (33) 
0

>  <ligand_id>  (33) 
9

>  <original_smiles>  (33) 
CC(NC(=O)CCC(=O)O)c1cccnc1

>  <smiles>  (33) 
[H]c1c([H])c([H])[n+]([H])c([H])c1C([H])(N([H])C(=O)C([H])([H])C([H])([H])C(=O)[O-])C([H])([H])[H]

$$$$
10:0:0
     RDKit          3D

 29 31  0  0  1  0  0  0  0  0999 V2000
    5.7543   -7.0631    1.4248 C   0  0  0  0  0  0  0  0  0  0  0  0
    4.4720   -6.4312    1.1433 N   0  0  0  0  0  0  0  0  0  0  0  0
    4.1994   -5.2212    0.5842 C   0  0  0  0  0  0  0  0  0  0  0  0
    5.2972   -4.2791    0.1497 C   0  0  0  0  0  0  0  0  0  0  0  0
    4.9318   -3.3457   -0.9951 C   0  0  0  0  0  0  0  0  0  0  0  0
    4.8198   -3.8534   -2.3071 C   0  0  0  0  0  0  0  0  0  0  0  0
    4.4531   -3.0075   -3.3721 C   0  0  0  0  0  0  0  0  0  0  0  0
    4.2251   -1.6386   -3.1340 C   0  0  0  0  0  0  0  0  0  0  0  0
    3.7950   -0.5904   -4.4348 Cl  0  0  0  0  0  0  0  0  0  0  0  0
    4.3793   -1.1204   -1.8329 C   0  0  0  0  0  0  0  0  0  0  0  0
    4.7227   -1.9702   -0.7618 C   0  0  0  0  0  0  0  0  0  0  0  0
    2.8957   -4.9147    0.4813 N   0  0  0  0  0  0  0  0  0  0  0  0
    2.2717   -6.0366    0.9927 C   0  0  0  0  0  0  0  0  0  0  0  0
    0.9534   -6.2566    1.1050 N   0  0  0  0  0  0  0  0  0  0  0  0
    0.6280   -7.4478    1.6673 C   0  0  0  0  0  0  0  0  0  0  0  0
    1.5865   -8.3995    2.0975 C   0  0  0  0  0  0  0  0  0  0  0  0
    2.9226   -8.1994    1.9864 N   0  0  0  0  0  0  0  0  0  0  0  0
    3.2302   -6.9927    1.4230 C   0  0  0  0  0  0  0  0  0  0  0  0
    6.6030   -6.4449    1.1426 H   0  0  0  0  0  0  0  0  0  0  0  0
    5.8160   -8.0087    0.8847 H   0  0  0  0  0  0  0  0  0  0  0  0
    5.8321   -7.2652    2.4932 H   0  0  0  0  0  0  0  0  0  0  0  0
    5.6109   -3.6995    1.0189 H   0  0  0  0  0  0  0  0  0  0  0  0
    6.1699   -4.8347   -0.1924 H   0  0  0  0  0  0  0  0  0  0  0  0
    4.9953   -4.9026   -2.4949 H   0  0  0  0  0  0  0  0  0  0  0  0
    4.3457   -3.4192   -4.3640 H   0  0  0  0  0  0  0  0  0  0  0  0
    4.2264   -0.0706   -1.6515 H   0  0  0  0  0  0  0  0  0  0  0  0
    4.8230   -1.5662    0.2377 H   0  0  0  0  0  0  0  0  0  0  0  0
   -0.4259   -7.6515    1.7766 H   0  0  0  0  0  0  0  0  0  0  0  0
    1.2676   -9.3363    2.5333 H   0  0  0  0  0  0  0  0  0  0  0  0
  1  2  1  0
  1 19  1  0
  1 20  1  0
  1 21  1  0
  2 18  1  0
  2  3  1  0
  3  4  1  0
  3 12  2  0
  4  5  1  0
  4 22  1  0
  4 23  1  0
  5 11  1  0
  5  6  2  0
  6  7  1  0
  6 24  1  0
  7  8  2  0
  7 25  1  0
  8  9  1  0
  8 10  1  0
 10 11  2  0
 10 26  1  0
 11 27  1  0
 12 13  1  0
 13 18  2  0
 13 14  1  0
 14 15  2  0
 15 16  1  0
 15 28  1  0
 16 17  2  0
 16 29  1  0
 17 18  1  0
M  END
>  <i_m_ct_stereo_status>  (34) 
1

>  <s_m_source_file>  (34) 
/var/tmp/pbs.5083858.sched01/tmp0jl0zasx/159x9ja6z1.sdf

>  <i_m_source_file_index>  (34) 
1

>  <i_lp_mmshare_version>  (34) 
48012

>  <i_f3d_flags>  (34) 
0

>  <s_epik_input>  (34) 
bjFbY0hdW2NIXW5jKGMxMiluKFtDSDNdKWMobjIpW0NIMl1jM1tjSF1bY0hdYyhDbClbY0hdW2NIXTM=

>  <s_epik_cmdline>  (34) 
J2VwaWtfcHl0aG9uJywgJy1waHQnLCAnMi4wJywgJy1waCcsICc3LjAnLCAnLXRuJywgJzgnLCAnLW1hJywgJzIwMCcsICctaW1hZScsICc8aW5maWxlLm1hZT4nLCAnLW9tYWUnLCAnPG91dGZpbGUubWFlPic=

>  <r_lp_tautomer_probability>  (34) 
1

>  <r_epik_Ionization_Penalty>  (34) 
1.30189e-06

>  <r_epik_Ionization_Penalty_Charging>  (34) 
0

>  <r_epik_Ionization_Penalty_Neutral>  (34) 
1.30189e-06

>  <r_epik_State_Penalty>  (34) 
-0

>  <r_epik_Charging_Adjusted_Penalty>  (34) 
0

>  <i_epik_Tot_Q>  (34) 
0

>  <i_epik_Tot_abs_Q>  (34) 
0

>  <s_lp_Force_Field>  (34) 
OPLS3e

>  <r_lp_Energy>  (34) 
28.4329

>  <b_lp_Chiralities_Consistent>  (34) 
1

>  <s_lp_Variant>  (34) 
10:0-1

>  <s_i_glide_gridfile>  (34) 
pfpi4k_grid

>  <i_i_glide_lignum>  (34) 
1

>  <i_i_glide_rotatable_bonds>  (34) 
2

>  <r_i_docking_score>  (34) 
-3.94227

>  <r_i_glide_ligand_efficiency>  (34) 
-0.219015

>  <r_i_glide_ligand_efficiency_sa>  (34) 
-0.573981

>  <r_i_glide_ligand_efficiency_ln>  (34) 
-1.01334

>  <r_i_glide_gscore>  (34) 
-3.94227

>  <r_i_glide_lipo>  (34) 
-0.65922

>  <r_i_glide_hbond>  (34) 
-0.16

>  <r_i_glide_metal>  (34) 
-0

>  <r_i_glide_rewards>  (34) 
-1.91764

>  <r_i_glide_evdw>  (34) 
-27.7106

>  <r_i_glide_ecoul>  (34) 
-2.12214

>  <r_i_glide_erotb>  (34) 
0.528021

>  <r_i_glide_esite>  (34) 
-0.0295784

>  <r_i_glide_emodel>  (34) 
-37.4698

>  <r_i_glide_energy>  (34) 
-29.8328

>  <r_i_glide_einternal>  (34) 
0.477654

>  <r_i_glide_intrahb_reward>  (34) 
-0

>  <i_i_glide_confnum>  (34) 
2

>  <i_i_glide_posenum>  (34) 
13

>  <r_i_glide_eff_state_penalty>  (34) 
0

>  <ligand_id>  (34) 
10

>  <original_smiles>  (34) 
Cn1c(Cc2ccc(Cl)cc2)nc2nccnc21

>  <smiles>  (34) 
[H]c1nc2nc(C([H])([H])c3c([H])c([H])c(Cl)c([H])c3[H])n(C([H])([H])[H])c2nc1[H]

$$$$
10:0:1
     RDKit          3D

 29 31  0  0  1  0  0  0  0  0999 V2000
    3.7474   -8.1199    1.7073 C   0  0  0  0  0  0  0  0  0  0  0  0
    2.3968   -7.5734    1.6737 N   0  0  0  0  0  0  0  0  0  0  0  0
    1.9163   -6.4779    1.0190 C   0  0  0  0  0  0  0  0  0  0  0  0
    2.7774   -5.5872    0.1646 C   0  0  0  0  0  0  0  0  0  0  0  0
    3.3279   -4.3651    0.8887 C   0  0  0  0  0  0  0  0  0  0  0  0
    4.2687   -4.5080    1.9337 C   0  0  0  0  0  0  0  0  0  0  0  0
    4.7926   -3.3703    2.5821 C   0  0  0  0  0  0  0  0  0  0  0  0
    4.3854   -2.0799    2.1890 C   0  0  0  0  0  0  0  0  0  0  0  0
    5.0250   -0.6884    2.9868 Cl  0  0  0  0  0  0  0  0  0  0  0  0
    3.4541   -1.9304    1.1425 C   0  0  0  0  0  0  0  0  0  0  0  0
    2.9333   -3.0676    0.4915 C   0  0  0  0  0  0  0  0  0  0  0  0
    0.6022   -6.2620    1.1496 N   0  0  0  0  0  0  0  0  0  0  0  0
    0.2012   -7.2830    1.9908 C   0  0  0  0  0  0  0  0  0  0  0  0
   -1.0291   -7.4972    2.4753 N   0  0  0  0  0  0  0  0  0  0  0  0
   -1.1371   -8.5989    3.2617 C   0  0  0  0  0  0  0  0  0  0  0  0
   -0.0425   -9.4478    3.5727 C   0  0  0  0  0  0  0  0  0  0  0  0
    1.2160   -9.2259    3.1187 N   0  0  0  0  0  0  0  0  0  0  0  0
    1.2981   -8.1226    2.3197 C   0  0  0  0  0  0  0  0  0  0  0  0
    4.4522   -7.5353    1.1235 H   0  0  0  0  0  0  0  0  0  0  0  0
    3.7298   -9.1318    1.3054 H   0  0  0  0  0  0  0  0  0  0  0  0
    4.0973   -8.1459    2.7373 H   0  0  0  0  0  0  0  0  0  0  0  0
    3.6076   -6.1397   -0.2762 H   0  0  0  0  0  0  0  0  0  0  0  0
    2.1792   -5.2675   -0.6842 H   0  0  0  0  0  0  0  0  0  0  0  0
    4.6028   -5.4896    2.2405 H   0  0  0  0  0  0  0  0  0  0  0  0
    5.5090   -3.4927    3.3821 H   0  0  0  0  0  0  0  0  0  0  0  0
    3.1327   -0.9443    0.8316 H   0  0  0  0  0  0  0  0  0  0  0  0
    2.2274   -2.9283   -0.3194 H   0  0  0  0  0  0  0  0  0  0  0  0
   -2.1163   -8.8145    3.6601 H   0  0  0  0  0  0  0  0  0  0  0  0
   -0.1845  -10.3101    4.2107 H   0  0  0  0  0  0  0  0  0  0  0  0
  1  2  1  0
  1 19  1  0
  1 20  1  0
  1 21  1  0
  2 18  1  0
  2  3  1  0
  3  4  1  0
  3 12  2  0
  4  5  1  0
  4 22  1  0
  4 23  1  0
  5 11  1  0
  5  6  2  0
  6  7  1  0
  6 24  1  0
  7  8  2  0
  7 25  1  0
  8  9  1  0
  8 10  1  0
 10 11  2  0
 10 26  1  0
 11 27  1  0
 12 13  1  0
 13 18  2  0
 13 14  1  0
 14 15  2  0
 15 16  1  0
 15 28  1  0
 16 17  2  0
 16 29  1  0
 17 18  1  0
M  END
>  <i_m_ct_stereo_status>  (35) 
1

>  <s_m_source_file>  (35) 
/var/tmp/pbs.5083858.sched01/tmp0jl0zasx/159x9ja6z1.sdf

>  <i_m_source_file_index>  (35) 
1

>  <i_lp_mmshare_version>  (35) 
48012

>  <i_f3d_flags>  (35) 
0

>  <s_epik_input>  (35) 
bjFbY0hdW2NIXW5jKGMxMiluKFtDSDNdKWMobjIpW0NIMl1jM1tjSF1bY0hdYyhDbClbY0hdW2NIXTM=

>  <s_epik_cmdline>  (35) 
J2VwaWtfcHl0aG9uJywgJy1waHQnLCAnMi4wJywgJy1waCcsICc3LjAnLCAnLXRuJywgJzgnLCAnLW1hJywgJzIwMCcsICctaW1hZScsICc8aW5maWxlLm1hZT4nLCAnLW9tYWUnLCAnPG91dGZpbGUubWFlPic=

>  <r_lp_tautomer_probability>  (35) 
1

>  <r_epik_Ionization_Penalty>  (35) 
1.30189e-06

>  <r_epik_Ionization_Penalty_Charging>  (35) 
0

>  <r_epik_Ionization_Penalty_Neutral>  (35) 
1.30189e-06

>  <r_epik_State_Penalty>  (35) 
-0

>  <r_epik_Charging_Adjusted_Penalty>  (35) 
0

>  <i_epik_Tot_Q>  (35) 
0

>  <i_epik_Tot_abs_Q>  (35) 
0

>  <s_lp_Force_Field>  (35) 
OPLS3e

>  <r_lp_Energy>  (35) 
28.4329

>  <b_lp_Chiralities_Consistent>  (35) 
1

>  <s_lp_Variant>  (35) 
10:0-1

>  <s_i_glide_gridfile>  (35) 
pfpi4k_grid

>  <i_i_glide_lignum>  (35) 
1

>  <i_i_glide_rotatable_bonds>  (35) 
2

>  <r_i_docking_score>  (35) 
-3.65051

>  <r_i_glide_ligand_efficiency>  (35) 
-0.202806

>  <r_i_glide_ligand_efficiency_sa>  (35) 
-0.531502

>  <r_i_glide_ligand_efficiency_ln>  (35) 
-0.938344

>  <r_i_glide_gscore>  (35) 
-3.65051

>  <r_i_glide_lipo>  (35) 
-0.185836

>  <r_i_glide_hbond>  (35) 
-0.193307

>  <r_i_glide_metal>  (35) 
-0

>  <r_i_glide_rewards>  (35) 
-1.64519

>  <r_i_glide_evdw>  (35) 
-21.71

>  <r_i_glide_ecoul>  (35) 
-6.14236

>  <r_i_glide_erotb>  (35) 
0.528021

>  <r_i_glide_esite>  (35) 
-0.147342

>  <r_i_glide_emodel>  (35) 
-35.0397

>  <r_i_glide_energy>  (35) 
-27.8524

>  <r_i_glide_einternal>  (35) 
0.265086

>  <r_i_glide_intrahb_reward>  (35) 
-0

>  <i_i_glide_confnum>  (35) 
3

>  <i_i_glide_posenum>  (35) 
7

>  <r_i_glide_eff_state_penalty>  (35) 
0

>  <ligand_id>  (35) 
10

>  <original_smiles>  (35) 
Cn1c(Cc2ccc(Cl)cc2)nc2nccnc21

>  <smiles>  (35) 
[H]c1nc2nc(C([H])([H])c3c([H])c([H])c(Cl)c([H])c3[H])n(C([H])([H])[H])c2nc1[H]

$$$$
10:0:2
     RDKit          3D

 29 31  0  0  1  0  0  0  0  0999 V2000
    7.3585   -5.8766    1.0324 C   0  0  0  0  0  0  0  0  0  0  0  0
    5.9137   -5.9772    1.1925 N   0  0  0  0  0  0  0  0  0  0  0  0
    4.9579   -5.0057    1.2144 C   0  0  0  0  0  0  0  0  0  0  0  0
    5.2762   -3.5394    1.0831 C   0  0  0  0  0  0  0  0  0  0  0  0
    4.9244   -2.9587   -0.2762 C   0  0  0  0  0  0  0  0  0  0  0  0
    5.7246   -3.2338   -1.4085 C   0  0  0  0  0  0  0  0  0  0  0  0
    5.3913   -2.6903   -2.6687 C   0  0  0  0  0  0  0  0  0  0  0  0
    4.2635   -1.8483   -2.7957 C   0  0  0  0  0  0  0  0  0  0  0  0
    3.8191   -1.1614   -4.3154 Cl  0  0  0  0  0  0  0  0  0  0  0  0
    3.4784   -1.5579   -1.6663 C   0  0  0  0  0  0  0  0  0  0  0  0
    3.8039   -2.1133   -0.4117 C   0  0  0  0  0  0  0  0  0  0  0  0
    3.6985   -5.4333    1.3879 N   0  0  0  0  0  0  0  0  0  0  0  0
    3.8467   -6.8059    1.4881 C   0  0  0  0  0  0  0  0  0  0  0  0
    2.8847   -7.7234    1.6802 N   0  0  0  0  0  0  0  0  0  0  0  0
    3.3289   -9.0052    1.7379 C   0  0  0  0  0  0  0  0  0  0  0  0
    4.6952   -9.3605    1.6221 C   0  0  0  0  0  0  0  0  0  0  0  0
    5.6839   -8.4529    1.4333 N   0  0  0  0  0  0  0  0  0  0  0  0
    5.2162   -7.1705    1.3688 C   0  0  0  0  0  0  0  0  0  0  0  0
    7.7024   -4.8566    0.8973 H   0  0  0  0  0  0  0  0  0  0  0  0
    7.6662   -6.4490    0.1592 H   0  0  0  0  0  0  0  0  0  0  0  0
    7.8450   -6.2918    1.9140 H   0  0  0  0  0  0  0  0  0  0  0  0
    4.7367   -3.0100    1.8668 H   0  0  0  0  0  0  0  0  0  0  0  0
    6.3246   -3.3244    1.2826 H   0  0  0  0  0  0  0  0  0  0  0  0
    6.6038   -3.8582   -1.3151 H   0  0  0  0  0  0  0  0  0  0  0  0
    6.0100   -2.9183   -3.5206 H   0  0  0  0  0  0  0  0  0  0  0  0
    2.6217   -0.9102   -1.7715 H   0  0  0  0  0  0  0  0  0  0  0  0
    3.1861   -1.8773    0.4414 H   0  0  0  0  0  0  0  0  0  0  0  0
    2.5813   -9.7691    1.8815 H   0  0  0  0  0  0  0  0  0  0  0  0
    5.0005  -10.3945    1.6796 H   0  0  0  0  0  0  0  0  0  0  0  0
  1  2  1  0
  1 19  1  0
  1 20  1  0
  1 21  1  0
  2 18  1  0
  2  3  1  0
  3  4  1  0
  3 12  2  0
  4  5  1  0
  4 22  1  0
  4 23  1  0
  5 11  1  0
  5  6  2  0
  6  7  1  0
  6 24  1  0
  7  8  2  0
  7 25  1  0
  8  9  1  0
  8 10  1  0
 10 11  2  0
 10 26  1  0
 11 27  1  0
 12 13  1  0
 13 18  2  0
 13 14  1  0
 14 15  2  0
 15 16  1  0
 15 28  1  0
 16 17  2  0
 16 29  1  0
 17 18  1  0
M  END
>  <i_m_ct_stereo_status>  (36) 
1

>  <s_m_source_file>  (36) 
/var/tmp/pbs.5083858.sched01/tmp0jl0zasx/159x9ja6z1.sdf

>  <i_m_source_file_index>  (36) 
1

>  <i_lp_mmshare_version>  (36) 
48012

>  <i_f3d_flags>  (36) 
0

>  <s_epik_input>  (36) 
bjFbY0hdW2NIXW5jKGMxMiluKFtDSDNdKWMobjIpW0NIMl1jM1tjSF1bY0hdYyhDbClbY0hdW2NIXTM=

>  <s_epik_cmdline>  (36) 
J2VwaWtfcHl0aG9uJywgJy1waHQnLCAnMi4wJywgJy1waCcsICc3LjAnLCAnLXRuJywgJzgnLCAnLW1hJywgJzIwMCcsICctaW1hZScsICc8aW5maWxlLm1hZT4nLCAnLW9tYWUnLCAnPG91dGZpbGUubWFlPic=

>  <r_lp_tautomer_probability>  (36) 
1

>  <r_epik_Ionization_Penalty>  (36) 
1.30189e-06

>  <r_epik_Ionization_Penalty_Charging>  (36) 
0

>  <r_epik_Ionization_Penalty_Neutral>  (36) 
1.30189e-06

>  <r_epik_State_Penalty>  (36) 
-0

>  <r_epik_Charging_Adjusted_Penalty>  (36) 
0

>  <i_epik_Tot_Q>  (36) 
0

>  <i_epik_Tot_abs_Q>  (36) 
0

>  <s_lp_Force_Field>  (36) 
OPLS3e

>  <r_lp_Energy>  (36) 
28.4329

>  <b_lp_Chiralities_Consistent>  (36) 
1

>  <s_lp_Variant>  (36) 
10:0-1

>  <s_i_glide_gridfile>  (36) 
pfpi4k_grid

>  <i_i_glide_lignum>  (36) 
1

>  <i_i_glide_rotatable_bonds>  (36) 
2

>  <r_i_docking_score>  (36) 
-3.39827

>  <r_i_glide_ligand_efficiency>  (36) 
-0.188793

>  <r_i_glide_ligand_efficiency_sa>  (36) 
-0.494778

>  <r_i_glide_ligand_efficiency_ln>  (36) 
-0.873509

>  <r_i_glide_gscore>  (36) 
-3.39827

>  <r_i_glide_lipo>  (36) 
-0.393119

>  <r_i_glide_hbond>  (36) 
0

>  <r_i_glide_metal>  (36) 
-0

>  <r_i_glide_rewards>  (36) 
-2.03746

>  <r_i_glide_evdw>  (36) 
-24.6726

>  <r_i_glide_ecoul>  (36) 
-1.74724

>  <r_i_glide_erotb>  (36) 
0.528021

>  <r_i_glide_esite>  (36) 
0

>  <r_i_glide_emodel>  (36) 
-33.0961

>  <r_i_glide_energy>  (36) 
-26.4198

>  <r_i_glide_einternal>  (36) 
0.179718

>  <r_i_glide_intrahb_reward>  (36) 
-0

>  <i_i_glide_confnum>  (36) 
2

>  <i_i_glide_posenum>  (36) 
35

>  <r_i_glide_eff_state_penalty>  (36) 
0

>  <ligand_id>  (36) 
10

>  <original_smiles>  (36) 
Cn1c(Cc2ccc(Cl)cc2)nc2nccnc21

>  <smiles>  (36) 
[H]c1nc2nc(C([H])([H])c3c([H])c([H])c(Cl)c([H])c3[H])n(C([H])([H])[H])c2nc1[H]

$$$$
13:0:0
     RDKit          3D

 65 68  0  0  1  0  0  0  0  0999 V2000
    0.6174   -7.5201    3.9640 C   0  0  0  0  0  0  0  0  0  0  0  0
    0.9465   -6.2030    3.9265 C   0  0  0  0  0  0  0  0  0  0  0  0
    0.6868   -5.3882    5.1820 C   0  0  0  0  0  0  0  0  0  0  0  0
    1.5289   -5.4798    2.6829 C   0  0  2  0  0  0  0  0  0  0  0  0
    1.4638   -6.3910    1.4330 C   0  0  0  0  0  0  0  0  0  0  0  0
    2.9452   -4.7895    2.9223 C   0  0  2  0  0  0  0  0  0  0  0  0
    2.8338   -3.5573    3.9428 C   0  0  0  0  0  0  0  0  0  0  0  0
    3.2211   -2.0414    3.5675 C   0  0  0  0  0  0  0  0  0  0  0  0
    4.5039   -1.6561    2.6797 C   0  0  1  0  0  0  0  0  0  0  0  0
    5.0959   -0.3422    3.2309 C   0  0  0  0  0  0  0  0  0  0  0  0
    5.4119   -2.6142    3.0652 O   0  0  0  0  0  0  0  0  0  0  0  0
    5.1982   -3.8806    2.5958 C   0  0  2  0  0  0  0  0  0  0  0  0
    6.3915   -4.3451    2.0212 O   0  0  0  0  0  0  0  0  0  0  0  0
    6.4254   -5.7084    1.7532 C   0  0  1  0  0  0  0  0  0  0  0  0
    6.2309   -6.4884    2.8921 O   0  0  0  0  0  0  0  0  0  0  0  0
    7.3392   -6.4792    3.7870 C   0  0  0  0  0  0  0  0  0  0  0  0
    5.3729   -6.0108    0.6709 C   0  0  1  0  0  0  0  0  0  0  0  0
    4.6983   -7.3743    0.8824 C   0  0  0  0  0  0  0  0  0  0  0  0
    4.4248   -4.8072    0.4798 C   0  0  2  0  0  0  0  0  0  0  0  0
    5.1392   -3.7712   -0.2826 O   0  0  0  0  0  0  0  0  0  0  0  0
    5.4029   -2.3565    0.0671 C   0  0  0  0  0  0  0  0  0  0  0  0
    6.8969   -2.1466    0.4036 C   0  0  0  0  0  0  0  0  0  0  0  0
    5.2965   -1.7407   -1.3515 C   0  0  0  0  0  0  0  0  0  0  0  0
    4.4320   -1.5547    1.0714 C   0  0  1  0  0  0  0  0  0  0  0  0
    3.0309   -1.8141    0.6452 C   0  0  0  0  0  0  0  0  0  0  0  0
    2.7031   -3.2079    1.0890 C   0  0  0  0  0  0  0  0  0  0  0  0
    3.8067   -4.1843    1.7543 C   0  0  1  0  0  0  0  0  0  0  0  0
    0.2018   -7.9404    4.8633 H   0  0  0  0  0  0  0  0  0  0  0  0
    0.7445   -8.1872    3.1352 H   0  0  0  0  0  0  0  0  0  0  0  0
    1.6126   -4.9554    5.5774 H   0  0  0  0  0  0  0  0  0  0  0  0
    0.1913   -5.9800    5.9540 H   0  0  0  0  0  0  0  0  0  0  0  0
    0.0178   -4.5561    4.9650 H   0  0  0  0  0  0  0  0  0  0  0  0
    0.7995   -4.6974    2.4970 H   0  0  0  0  0  0  0  0  0  0  0  0
    0.4331   -6.6760    1.2167 H   0  0  0  0  0  0  0  0  0  0  0  0
    2.0162   -7.3187    1.5703 H   0  0  0  0  0  0  0  0  0  0  0  0
    1.8355   -5.9316    0.5253 H   0  0  0  0  0  0  0  0  0  0  0  0
    3.5179   -5.5945    3.3842 H   0  0  0  0  0  0  0  0  0  0  0  0
    1.8170   -3.5012    4.3112 H   0  0  0  0  0  0  0  0  0  0  0  0
    3.4287   -3.8033    4.8223 H   0  0  0  0  0  0  0  0  0  0  0  0
    2.3408   -1.5096    3.1993 H   0  0  0  0  0  0  0  0  0  0  0  0
    3.3796   -1.5698    4.5384 H   0  0  0  0  0  0  0  0  0  0  0  0
    4.4079    0.4893    3.1001 H   0  0  0  0  0  0  0  0  0  0  0  0
    6.0305   -0.1067    2.7336 H   0  0  0  0  0  0  0  0  0  0  0  0
    5.3083   -0.4369    4.2907 H   0  0  0  0  0  0  0  0  0  0  0  0
    5.2228   -4.4184    3.5407 H   0  0  0  0  0  0  0  0  0  0  0  0
    7.4140   -5.9381    1.3471 H   0  0  0  0  0  0  0  0  0  0  0  0
    7.1437   -7.1452    4.6276 H   0  0  0  0  0  0  0  0  0  0  0  0
    7.5099   -5.4795    4.1873 H   0  0  0  0  0  0  0  0  0  0  0  0
    8.2615   -6.8211    3.3114 H   0  0  0  0  0  0  0  0  0  0  0  0
    5.9163   -6.0761   -0.2688 H   0  0  0  0  0  0  0  0  0  0  0  0
    4.1896   -7.4235    1.8409 H   0  0  0  0  0  0  0  0  0  0  0  0
    5.4283   -8.1795    0.8583 H   0  0  0  0  0  0  0  0  0  0  0  0
    3.9753   -7.5588    0.0932 H   0  0  0  0  0  0  0  0  0  0  0  0
    3.6639   -5.1629   -0.2111 H   0  0  0  0  0  0  0  0  0  0  0  0
    7.2583   -1.1725    0.0824 H   0  0  0  0  0  0  0  0  0  0  0  0
    7.5045   -2.9095   -0.0836 H   0  0  0  0  0  0  0  0  0  0  0  0
    7.0955   -2.1866    1.4641 H   0  0  0  0  0  0  0  0  0  0  0  0
    5.3910   -0.6541   -1.3319 H   0  0  0  0  0  0  0  0  0  0  0  0
    4.3627   -1.9852   -1.8571 H   0  0  0  0  0  0  0  0  0  0  0  0
    6.0859   -2.1280   -1.9974 H   0  0  0  0  0  0  0  0  0  0  0  0
    4.6010   -0.5023    0.8415 H   0  0  0  0  0  0  0  0  0  0  0  0
    2.3497   -1.0846    1.0847 H   0  0  0  0  0  0  0  0  0  0  0  0
    2.8800   -1.7076   -0.4217 H   0  0  0  0  0  0  0  0  0  0  0  0
    1.8195   -3.0716    1.7004 H   0  0  0  0  0  0  0  0  0  0  0  0
    2.2490   -3.6948    0.2279 H   0  0  0  0  0  0  0  0  0  0  0  0
  1  2  2  0
  1 28  1  0
  1 29  1  0
  2  3  1  0
  2  4  1  0
  3 30  1  0
  3 31  1  0
  3 32  1  0
  4  5  1  0
  4  6  1  0
  4 33  1  6
  5 34  1  0
  5 35  1  0
  5 36  1  0
  6 27  1  0
  6  7  1  0
  6 37  1  1
  7  8  1  0
  7 38  1  0
  7 39  1  0
  8  9  1  0
  8 40  1  0
  8 41  1  0
  9 24  1  0
  9 10  1  1
  9 11  1  0
 10 42  1  0
 10 43  1  0
 10 44  1  0
 11 12  1  0
 12 27  1  0
 12 13  1  0
 12 45  1  1
 13 14  1  0
 14 15  1  0
 14 17  1  0
 14 46  1  6
 15 16  1  0
 16 47  1  0
 16 48  1  0
 16 49  1  0
 17 18  1  0
 17 19  1  0
 17 50  1  6
 18 51  1  0
 18 52  1  0
 18 53  1  0
 19 27  1  0
 19 20  1  0
 19 54  1  6
 20 21  1  0
 21 22  1  0
 21 23  1  0
 21 24  1  0
 22 55  1  0
 22 56  1  0
 22 57  1  0
 23 58  1  0
 23 59  1  0
 23 60  1  0
 24 25  1  0
 24 61  1  1
 25 26  1  0
 25 62  1  0
 25 63  1  0
 27 26  1  6
 26 64  1  0
 26 65  1  0
M  END
>  <i_m_ct_stereo_status>  (37) 
1

>  <s_m_source_file>  (37) 
/var/tmp/pbs.5083858.sched01/tmp0jl0zasx/159x9ja6z1.sdf

>  <i_m_source_file_index>  (37) 
5

>  <i_lp_mmshare_version>  (37) 
48012

>  <i_f3d_flags>  (37) 
0

>  <s_epik_input>  (37) 
W0NIMl09QyhbQ0gzXSlbQ0BIXShbQ0gzXSlbQ0BASF0xW0NIMl1bQ0gyXVtDQEBdKFtDSDNdKShPW0NASF0yW0NAXTEzNClbQ0BIXShbQ0gyXVtDSDJdNClDKFtDSDNdKShbQ0gzXSlPW0NASF0zW0NASF0oW0NIM10pW0NAQEhdKE8yKU9bQ0gzXQ==

>  <s_epik_cmdline>  (37) 
J2VwaWtfcHl0aG9uJywgJy1waHQnLCAnMi4wJywgJy1waCcsICc3LjAnLCAnLXRuJywgJzgnLCAnLW1hJywgJzIwMCcsICctaW1hZScsICc8aW5maWxlLm1hZT4nLCAnLW9tYWUnLCAnPG91dGZpbGUubWFlPic=

>  <r_lp_tautomer_probability>  (37) 
1

>  <r_epik_Ionization_Penalty>  (37) 
6.93694e-12

>  <r_epik_Ionization_Penalty_Charging>  (37) 
0

>  <r_epik_Ionization_Penalty_Neutral>  (37) 
6.93694e-12

>  <r_epik_State_Penalty>  (37) 
-0

>  <r_epik_Charging_Adjusted_Penalty>  (37) 
0

>  <i_epik_Tot_Q>  (37) 
0

>  <i_epik_Tot_abs_Q>  (37) 
0

>  <s_epik_Chemistry_Notes>  (37) 
This compound contains an acetal/aminal-like group ( X-CH(R)-Y where X, Y are N, S, or O) that may be acid/base labile, releasing an aldehyde.

>  <s_lp_Force_Field>  (37) 
OPLS3e

>  <r_lp_Energy>  (37) 
155.504

>  <b_lp_Chiralities_Consistent>  (37) 
1

>  <s_lp_Variant>  (37) 
13:0-1

>  <s_i_glide_gridfile>  (37) 
pfpi4k_grid

>  <i_i_glide_lignum>  (37) 
5

>  <i_i_glide_rotatable_bonds>  (37) 
3

>  <r_i_docking_score>  (37) 
-2.28677

>  <r_i_glide_ligand_efficiency>  (37) 
-0.0846953

>  <r_i_glide_ligand_efficiency_sa>  (37) 
-0.254086

>  <r_i_glide_ligand_efficiency_ln>  (37) 
-0.532323

>  <r_i_glide_gscore>  (37) 
-2.28677

>  <r_i_glide_lipo>  (37) 
-0.508401

>  <r_i_glide_hbond>  (37) 
0

>  <r_i_glide_metal>  (37) 
-0

>  <r_i_glide_rewards>  (37) 
-0.965424

>  <r_i_glide_evdw>  (37) 
-18.7527

>  <r_i_glide_ecoul>  (37) 
-0.972051

>  <r_i_glide_erotb>  (37) 
0.270492

>  <r_i_glide_esite>  (37) 
0

>  <r_i_glide_emodel>  (37) 
-21.0031

>  <r_i_glide_energy>  (37) 
-19.7247

>  <r_i_glide_einternal>  (37) 
0.54616

>  <r_i_glide_intrahb_reward>  (37) 
-0

>  <i_i_glide_confnum>  (37) 
2

>  <i_i_glide_posenum>  (37) 
34

>  <r_i_glide_eff_state_penalty>  (37) 
0

>  <ligand_id>  (37) 
13

>  <original_smiles>  (37) 
C=C(C)C(C)C1CCC2(C)OC3OC(OC)C(C)C4OC(C)(C)C2CCC314

>  <smiles>  (37) 
[H]C([H])=C(C([H])([H])[H])C([H])(C([H])([H])[H])C1([H])C([H])([H])C([H])([H])C2(C([H])([H])[H])OC3([H])OC([H])(OC([H])([H])[H])C([H])(C([H])([H])[H])C4([H])OC(C([H])([H])[H])(C([H])([H])[H])C2([H])C([H])([H])C([H])([H])C341

$$$$
13:0:1
     RDKit          3D

 65 68  0  0  1  0  0  0  0  0999 V2000
    0.3781   -6.7485    4.3531 C   0  0  0  0  0  0  0  0  0  0  0  0
    1.6761   -6.8884    4.0348 C   0  0  0  0  0  0  0  0  0  0  0  0
    2.6630   -7.4169    5.0705 C   0  0  0  0  0  0  0  0  0  0  0  0
    2.2095   -6.5535    2.6341 C   0  0  2  0  0  0  0  0  0  0  0  0
    2.6328   -7.8544    1.9369 C   0  0  0  0  0  0  0  0  0  0  0  0
    3.2769   -5.3856    2.6435 C   0  0  2  0  0  0  0  0  0  0  0  0
    2.6321   -4.0087    3.1412 C   0  0  0  0  0  0  0  0  0  0  0  0
    2.5612   -2.6856    2.2223 C   0  0  0  0  0  0  0  0  0  0  0  0
    3.7658   -2.2205    1.2581 C   0  0  1  0  0  0  0  0  0  0  0  0
    3.8298   -0.6825    1.2618 C   0  0  0  0  0  0  0  0  0  0  0  0
    4.8763   -2.5775    1.9865 O   0  0  0  0  0  0  0  0  0  0  0  0
    5.1482   -3.9243    2.0525 C   0  0  2  0  0  0  0  0  0  0  0  0
    6.4985   -4.1359    1.7243 O   0  0  0  0  0  0  0  0  0  0  0  0
    6.9980   -5.4076    1.9912 C   0  0  1  0  0  0  0  0  0  0  0  0
    6.9134   -5.7609    3.3407 O   0  0  0  0  0  0  0  0  0  0  0  0
    8.1038   -6.3590    3.8593 C   0  0  0  0  0  0  0  0  0  0  0  0
    6.2622   -6.4039    1.0822 C   0  0  1  0  0  0  0  0  0  0  0  0
    5.9999   -7.7601    1.7594 C   0  0  0  0  0  0  0  0  0  0  0  0
    5.0224   -5.7475    0.4307 C   0  0  2  0  0  0  0  0  0  0  0  0
    5.4496   -4.8728   -0.6648 O   0  0  0  0  0  0  0  0  0  0  0  0
    5.2343   -3.4260   -0.8650 C   0  0  0  0  0  0  0  0  0  0  0  0
    6.5254   -2.6070   -0.6125 C   0  0  0  0  0  0  0  0  0  0  0  0
    5.1645   -3.4344   -2.4161 C   0  0  0  0  0  0  0  0  0  0  0  0
    3.9217   -2.7141   -0.2698 C   0  0  1  0  0  0  0  0  0  0  0  0
    2.7568   -3.5786   -0.5964 C   0  0  0  0  0  0  0  0  0  0  0  0
    2.8344   -4.7464    0.3431 C   0  0  0  0  0  0  0  0  0  0  0  0
    4.0697   -4.9732    1.3618 C   0  0  1  0  0  0  0  0  0  0  0  0
    0.0239   -7.0048    5.3429 H   0  0  0  0  0  0  0  0  0  0  0  0
   -0.3447   -6.3875    3.6401 H   0  0  0  0  0  0  0  0  0  0  0  0
    3.1511   -8.3279    4.7316 H   0  0  0  0  0  0  0  0  0  0  0  0
    2.1449   -7.6652    5.9972 H   0  0  0  0  0  0  0  0  0  0  0  0
    3.4240   -6.6781    5.3178 H   0  0  0  0  0  0  0  0  0  0  0  0
    1.3279   -6.2304    2.0875 H   0  0  0  0  0  0  0  0  0  0  0  0
    1.7769   -8.5228    1.8310 H   0  0  0  0  0  0  0  0  0  0  0  0
    3.3799   -8.3960    2.5080 H   0  0  0  0  0  0  0  0  0  0  0  0
    3.0171   -7.6853    0.9402 H   0  0  0  0  0  0  0  0  0  0  0  0
    4.0025   -5.7167    3.3816 H   0  0  0  0  0  0  0  0  0  0  0  0
    1.6183   -4.1920    3.4960 H   0  0  0  0  0  0  0  0  0  0  0  0
    3.1691   -3.7183    4.0461 H   0  0  0  0  0  0  0  0  0  0  0  0
    1.6224   -2.6519    1.6737 H   0  0  0  0  0  0  0  0  0  0  0  0
    2.4186   -1.8799    2.9464 H   0  0  0  0  0  0  0  0  0  0  0  0
    2.9421   -0.2507    0.7933 H   0  0  0  0  0  0  0  0  0  0  0  0
    4.7048   -0.3274    0.7152 H   0  0  0  0  0  0  0  0  0  0  0  0
    3.9019   -0.2868    2.2765 H   0  0  0  0  0  0  0  0  0  0  0  0
    5.2129   -4.0473    3.1313 H   0  0  0  0  0  0  0  0  0  0  0  0
    8.0494   -5.3450    1.6988 H   0  0  0  0  0  0  0  0  0  0  0  0
    7.9715   -6.5991    4.9148 H   0  0  0  0  0  0  0  0  0  0  0  0
    8.9638   -5.6918    3.7801 H   0  0  0  0  0  0  0  0  0  0  0  0
    8.3519   -7.2873    3.3413 H   0  0  0  0  0  0  0  0  0  0  0  0
    6.9687   -6.5925    0.2772 H   0  0  0  0  0  0  0  0  0  0  0  0
    5.4338   -7.6315    2.6786 H   0  0  0  0  0  0  0  0  0  0  0  0
    6.9295   -8.2670    2.0134 H   0  0  0  0  0  0  0  0  0  0  0  0
    5.4381   -8.4251    1.1054 H   0  0  0  0  0  0  0  0  0  0  0  0
    4.5177   -6.5694   -0.0722 H   0  0  0  0  0  0  0  0  0  0  0  0
    6.5916   -1.7593   -1.2920 H   0  0  0  0  0  0  0  0  0  0  0  0
    7.4024   -3.2282   -0.7794 H   0  0  0  0  0  0  0  0  0  0  0  0
    6.6013   -2.1825    0.3814 H   0  0  0  0  0  0  0  0  0  0  0  0
    4.9125   -2.4581   -2.8251 H   0  0  0  0  0  0  0  0  0  0  0  0
    4.4526   -4.1549   -2.8082 H   0  0  0  0  0  0  0  0  0  0  0  0
    6.1236   -3.7217   -2.8465 H   0  0  0  0  0  0  0  0  0  0  0  0
    3.7867   -1.8179   -0.8778 H   0  0  0  0  0  0  0  0  0  0  0  0
    1.8171   -3.0448   -0.4762 H   0  0  0  0  0  0  0  0  0  0  0  0
    2.7412   -3.9046   -1.6297 H   0  0  0  0  0  0  0  0  0  0  0  0
    1.8729   -4.6994    0.8372 H   0  0  0  0  0  0  0  0  0  0  0  0
    2.6817   -5.6390   -0.2660 H   0  0  0  0  0  0  0  0  0  0  0  0
  1  2  2  0
  1 28  1  0
  1 29  1  0
  2  3  1  0
  2  4  1  0
  3 30  1  0
  3 31  1  0
  3 32  1  0
  4  5  1  0
  4  6  1  0
  4 33  1  6
  5 34  1  0
  5 35  1  0
  5 36  1  0
  6 27  1  0
  6  7  1  0
  6 37  1  1
  7  8  1  0
  7 38  1  0
  7 39  1  0
  8  9  1  0
  8 40  1  0
  8 41  1  0
  9 24  1  0
  9 10  1  6
  9 11  1  0
 10 42  1  0
 10 43  1  0
 10 44  1  0
 11 12  1  0
 12 27  1  0
 12 13  1  0
 12 45  1  1
 13 14  1  0
 14 15  1  0
 14 17  1  0
 14 46  1  6
 15 16  1  0
 16 47  1  0
 16 48  1  0
 16 49  1  0
 17 18  1  0
 17 19  1  0
 17 50  1  6
 18 51  1  0
 18 52  1  0
 18 53  1  0
 19 27  1  0
 19 20  1  0
 19 54  1  6
 20 21  1  0
 21 22  1  0
 21 23  1  0
 21 24  1  0
 22 55  1  0
 22 56  1  0
 22 57  1  0
 23 58  1  0
 23 59  1  0
 23 60  1  0
 24 25  1  0
 24 61  1  6
 25 26  1  0
 25 62  1  0
 25 63  1  0
 27 26  1  6
 26 64  1  0
 26 65  1  0
M  END
>  <i_m_ct_stereo_status>  (38) 
1

>  <s_m_source_file>  (38) 
/var/tmp/pbs.5083858.sched01/tmp0jl0zasx/159x9ja6z1.sdf

>  <i_m_source_file_index>  (38) 
5

>  <i_lp_mmshare_version>  (38) 
48012

>  <i_f3d_flags>  (38) 
0

>  <s_epik_input>  (38) 
W0NIMl09QyhbQ0gzXSlbQ0BIXShbQ0gzXSlbQ0BASF0xW0NIMl1bQ0gyXVtDQEBdKFtDSDNdKShPW0NASF0yW0NAXTEzNClbQ0BIXShbQ0gyXVtDSDJdNClDKFtDSDNdKShbQ0gzXSlPW0NASF0zW0NASF0oW0NIM10pW0NAQEhdKE8yKU9bQ0gzXQ==

>  <s_epik_cmdline>  (38) 
J2VwaWtfcHl0aG9uJywgJy1waHQnLCAnMi4wJywgJy1waCcsICc3LjAnLCAnLXRuJywgJzgnLCAnLW1hJywgJzIwMCcsICctaW1hZScsICc8aW5maWxlLm1hZT4nLCAnLW9tYWUnLCAnPG91dGZpbGUubWFlPic=

>  <r_lp_tautomer_probability>  (38) 
1

>  <r_epik_Ionization_Penalty>  (38) 
6.93694e-12

>  <r_epik_Ionization_Penalty_Charging>  (38) 
0

>  <r_epik_Ionization_Penalty_Neutral>  (38) 
6.93694e-12

>  <r_epik_State_Penalty>  (38) 
-0

>  <r_epik_Charging_Adjusted_Penalty>  (38) 
0

>  <i_epik_Tot_Q>  (38) 
0

>  <i_epik_Tot_abs_Q>  (38) 
0

>  <s_epik_Chemistry_Notes>  (38) 
This compound contains an acetal/aminal-like group ( X-CH(R)-Y where X, Y are N, S, or O) that may be acid/base labile, releasing an aldehyde.

>  <s_lp_Force_Field>  (38) 
OPLS3e

>  <r_lp_Energy>  (38) 
155.504

>  <b_lp_Chiralities_Consistent>  (38) 
1

>  <s_lp_Variant>  (38) 
13:0-1

>  <s_i_glide_gridfile>  (38) 
pfpi4k_grid

>  <i_i_glide_lignum>  (38) 
5

>  <i_i_glide_rotatable_bonds>  (38) 
3

>  <r_i_docking_score>  (38) 
-2.22196

>  <r_i_glide_ligand_efficiency>  (38) 
-0.0822949

>  <r_i_glide_ligand_efficiency_sa>  (38) 
-0.246885

>  <r_i_glide_ligand_efficiency_ln>  (38) 
-0.517236

>  <r_i_glide_gscore>  (38) 
-2.22196

>  <r_i_glide_lipo>  (38) 
-0.555586

>  <r_i_glide_hbond>  (38) 
0

>  <r_i_glide_metal>  (38) 
-0

>  <r_i_glide_rewards>  (38) 
-0.957284

>  <r_i_glide_evdw>  (38) 
-19.2638

>  <r_i_glide_ecoul>  (38) 
-0.109302

>  <r_i_glide_erotb>  (38) 
0.270492

>  <r_i_glide_esite>  (38) 
0

>  <r_i_glide_emodel>  (38) 
-19.6654

>  <r_i_glide_energy>  (38) 
-19.3731

>  <r_i_glide_einternal>  (38) 
3.54288

>  <r_i_glide_intrahb_reward>  (38) 
-0

>  <i_i_glide_confnum>  (38) 
6

>  <i_i_glide_posenum>  (38) 
1

>  <r_i_glide_eff_state_penalty>  (38) 
0

>  <ligand_id>  (38) 
13

>  <original_smiles>  (38) 
C=C(C)C(C)C1CCC2(C)OC3OC(OC)C(C)C4OC(C)(C)C2CCC314

>  <smiles>  (38) 
[H]C([H])=C(C([H])([H])[H])C([H])(C([H])([H])[H])C1([H])C([H])([H])C([H])([H])C2(C([H])([H])[H])OC3([H])OC([H])(OC([H])([H])[H])C([H])(C([H])([H])[H])C4([H])OC(C([H])([H])[H])(C([H])([H])[H])C2([H])C([H])([H])C([H])([H])C341

$$$$
13:0:2
     RDKit          3D

 65 68  0  0  1  0  0  0  0  0999 V2000
    0.2037   -5.6294    4.9071 C   0  0  0  0  0  0  0  0  0  0  0  0
    1.2068   -6.1129    4.1528 C   0  0  0  0  0  0  0  0  0  0  0  0
    1.8954   -7.4122    4.5481 C   0  0  0  0  0  0  0  0  0  0  0  0
    1.6801   -5.4028    2.8750 C   0  0  2  0  0  0  0  0  0  0  0  0
    1.4860   -6.3326    1.6660 C   0  0  0  0  0  0  0  0  0  0  0  0
    3.1093   -4.7448    3.0305 C   0  0  2  0  0  0  0  0  0  0  0  0
    3.0892   -3.5511    4.1004 C   0  0  0  0  0  0  0  0  0  0  0  0
    3.4345   -2.0214    3.7228 C   0  0  0  0  0  0  0  0  0  0  0  0
    4.6318   -1.6157    2.7221 C   0  0  1  0  0  0  0  0  0  0  0  0
    5.2928   -0.3210    3.2372 C   0  0  0  0  0  0  0  0  0  0  0  0
    5.5780   -2.5673    3.0051 O   0  0  0  0  0  0  0  0  0  0  0  0
    5.3294   -3.8345    2.5484 C   0  0  2  0  0  0  0  0  0  0  0  0
    6.4663   -4.2999    1.8617 O   0  0  0  0  0  0  0  0  0  0  0  0
    6.4728   -5.6559    1.5739 C   0  0  1  0  0  0  0  0  0  0  0  0
    6.3654   -6.4482    2.7173 O   0  0  0  0  0  0  0  0  0  0  0  0
    7.5476   -6.4604    3.5058 C   0  0  0  0  0  0  0  0  0  0  0  0
    5.3278   -5.9277    0.5845 C   0  0  1  0  0  0  0  0  0  0  0  0
    4.6652   -7.2916    0.8241 C   0  0  0  0  0  0  0  0  0  0  0  0
    4.3763   -4.7187    0.4849 C   0  0  2  0  0  0  0  0  0  0  0  0
    5.0388   -3.6774   -0.3119 O   0  0  0  0  0  0  0  0  0  0  0  0
    5.3419   -2.2735    0.0349 C   0  0  0  0  0  0  0  0  0  0  0  0
    6.8612   -2.0773    0.2460 C   0  0  0  0  0  0  0  0  0  0  0  0
    5.1233   -1.6379   -1.3652 C   0  0  0  0  0  0  0  0  0  0  0  0
    4.4601   -1.4835    1.1237 C   0  0  1  0  0  0  0  0  0  0  0  0
    3.0295   -1.7219    0.8072 C   0  0  0  0  0  0  0  0  0  0  0  0
    2.7337   -3.1260    1.2516 C   0  0  0  0  0  0  0  0  0  0  0  0
    3.8755   -4.1236    1.8148 C   0  0  1  0  0  0  0  0  0  0  0  0
   -0.1257   -6.1569    5.7913 H   0  0  0  0  0  0  0  0  0  0  0  0
   -0.2999   -4.7080    4.6581 H   0  0  0  0  0  0  0  0  0  0  0  0
    1.7997   -8.1723    3.7743 H   0  0  0  0  0  0  0  0  0  0  0  0
    1.4450   -7.8268    5.4501 H   0  0  0  0  0  0  0  0  0  0  0  0
    2.9508   -7.2551    4.7589 H   0  0  0  0  0  0  0  0  0  0  0  0
    0.9537   -4.6072    2.7414 H   0  0  0  0  0  0  0  0  0  0  0  0
    0.4370   -6.6064    1.5580 H   0  0  0  0  0  0  0  0  0  0  0  0
    2.0366   -7.2628    1.7780 H   0  0  0  0  0  0  0  0  0  0  0  0
    1.7871   -5.8741    0.7306 H   0  0  0  0  0  0  0  0  0  0  0  0
    3.7138   -5.5584    3.4239 H   0  0  0  0  0  0  0  0  0  0  0  0
    2.1223   -3.5313    4.5999 H   0  0  0  0  0  0  0  0  0  0  0  0
    3.7770   -3.8317    4.8995 H   0  0  0  0  0  0  0  0  0  0  0  0
    2.5223   -1.4910    3.4460 H   0  0  0  0  0  0  0  0  0  0  0  0
    3.6740   -1.5685    4.6880 H   0  0  0  0  0  0  0  0  0  0  0  0
    4.6125    0.5303    3.1691 H   0  0  0  0  0  0  0  0  0  0  0  0
    6.1884   -0.0902    2.6578 H   0  0  0  0  0  0  0  0  0  0  0  0
    5.6056   -0.4203    4.2780 H   0  0  0  0  0  0  0  0  0  0  0  0
    5.4324   -4.3848    3.4823 H   0  0  0  0  0  0  0  0  0  0  0  0
    7.4184   -5.8928    1.0791 H   0  0  0  0  0  0  0  0  0  0  0  0
    7.4194   -7.1380    4.3493 H   0  0  0  0  0  0  0  0  0  0  0  0
    7.7639   -5.4692    3.9024 H   0  0  0  0  0  0  0  0  0  0  0  0
    8.4164   -6.8038    2.9420 H   0  0  0  0  0  0  0  0  0  0  0  0
    5.7979   -5.9796   -0.3943 H   0  0  0  0  0  0  0  0  0  0  0  0
    4.2387   -7.3582    1.8244 H   0  0  0  0  0  0  0  0  0  0  0  0
    5.3872   -8.1023    0.7255 H   0  0  0  0  0  0  0  0  0  0  0  0
    3.8730   -7.4608    0.0981 H   0  0  0  0  0  0  0  0  0  0  0  0
    3.5593   -5.0620   -0.1464 H   0  0  0  0  0  0  0  0  0  0  0  0
    7.1936   -1.0952   -0.0745 H   0  0  0  0  0  0  0  0  0  0  0  0
    7.4218   -2.8227   -0.3148 H   0  0  0  0  0  0  0  0  0  0  0  0
    7.1763   -2.1445    1.2808 H   0  0  0  0  0  0  0  0  0  0  0  0
    5.2245   -0.5530   -1.3438 H   0  0  0  0  0  0  0  0  0  0  0  0
    4.1515   -1.8662   -1.7982 H   0  0  0  0  0  0  0  0  0  0  0  0
    5.8494   -2.0159   -2.0845 H   0  0  0  0  0  0  0  0  0  0  0  0
    4.6228   -0.4272    0.8988 H   0  0  0  0  0  0  0  0  0  0  0  0
    2.3936   -0.9919    1.3106 H   0  0  0  0  0  0  0  0  0  0  0  0
    2.7962   -1.6058   -0.2439 H   0  0  0  0  0  0  0  0  0  0  0  0
    1.9039   -2.9788    1.9347 H   0  0  0  0  0  0  0  0  0  0  0  0
    2.2056   -3.5921    0.4188 H   0  0  0  0  0  0  0  0  0  0  0  0
  1  2  2  0
  1 28  1  0
  1 29  1  0
  2  3  1  0
  2  4  1  0
  3 30  1  0
  3 31  1  0
  3 32  1  0
  4  5  1  0
  4  6  1  0
  4 33  1  6
  5 34  1  0
  5 35  1  0
  5 36  1  0
  6 27  1  0
  6  7  1  0
  6 37  1  1
  7  8  1  0
  7 38  1  0
  7 39  1  0
  8  9  1  0
  8 40  1  0
  8 41  1  0
  9 24  1  0
  9 10  1  1
  9 11  1  0
 10 42  1  0
 10 43  1  0
 10 44  1  0
 11 12  1  0
 12 27  1  0
 12 13  1  0
 12 45  1  1
 13 14  1  0
 14 15  1  0
 14 17  1  0
 14 46  1  6
 15 16  1  0
 16 47  1  0
 16 48  1  0
 16 49  1  0
 17 18  1  0
 17 19  1  0
 17 50  1  6
 18 51  1  0
 18 52  1  0
 18 53  1  0
 19 27  1  0
 19 20  1  0
 19 54  1  6
 20 21  1  0
 21 22  1  0
 21 23  1  0
 21 24  1  0
 22 55  1  0
 22 56  1  0
 22 57  1  0
 23 58  1  0
 23 59  1  0
 23 60  1  0
 24 25  1  0
 24 61  1  6
 25 26  1  0
 25 62  1  0
 25 63  1  0
 27 26  1  6
 26 64  1  0
 26 65  1  0
M  END
>  <i_m_ct_stereo_status>  (39) 
1

>  <s_m_source_file>  (39) 
/var/tmp/pbs.5083858.sched01/tmp0jl0zasx/159x9ja6z1.sdf

>  <i_m_source_file_index>  (39) 
5

>  <i_lp_mmshare_version>  (39) 
48012

>  <i_f3d_flags>  (39) 
0

>  <s_epik_input>  (39) 
W0NIMl09QyhbQ0gzXSlbQ0BIXShbQ0gzXSlbQ0BASF0xW0NIMl1bQ0gyXVtDQEBdKFtDSDNdKShPW0NASF0yW0NAXTEzNClbQ0BIXShbQ0gyXVtDSDJdNClDKFtDSDNdKShbQ0gzXSlPW0NASF0zW0NASF0oW0NIM10pW0NAQEhdKE8yKU9bQ0gzXQ==

>  <s_epik_cmdline>  (39) 
J2VwaWtfcHl0aG9uJywgJy1waHQnLCAnMi4wJywgJy1waCcsICc3LjAnLCAnLXRuJywgJzgnLCAnLW1hJywgJzIwMCcsICctaW1hZScsICc8aW5maWxlLm1hZT4nLCAnLW9tYWUnLCAnPG91dGZpbGUubWFlPic=

>  <r_lp_tautomer_probability>  (39) 
1

>  <r_epik_Ionization_Penalty>  (39) 
6.93694e-12

>  <r_epik_Ionization_Penalty_Charging>  (39) 
0

>  <r_epik_Ionization_Penalty_Neutral>  (39) 
6.93694e-12

>  <r_epik_State_Penalty>  (39) 
-0

>  <r_epik_Charging_Adjusted_Penalty>  (39) 
0

>  <i_epik_Tot_Q>  (39) 
0

>  <i_epik_Tot_abs_Q>  (39) 
0

>  <s_epik_Chemistry_Notes>  (39) 
This compound contains an acetal/aminal-like group ( X-CH(R)-Y where X, Y are N, S, or O) that may be acid/base labile, releasing an aldehyde.

>  <s_lp_Force_Field>  (39) 
OPLS3e

>  <r_lp_Energy>  (39) 
155.504

>  <b_lp_Chiralities_Consistent>  (39) 
1

>  <s_lp_Variant>  (39) 
13:0-1

>  <s_i_glide_gridfile>  (39) 
pfpi4k_grid

>  <i_i_glide_lignum>  (39) 
5

>  <i_i_glide_rotatable_bonds>  (39) 
3

>  <r_i_docking_score>  (39) 
-2.20572

>  <r_i_glide_ligand_efficiency>  (39) 
-0.0816934

>  <r_i_glide_ligand_efficiency_sa>  (39) 
-0.24508

>  <r_i_glide_ligand_efficiency_ln>  (39) 
-0.513455

>  <r_i_glide_gscore>  (39) 
-2.20572

>  <r_i_glide_lipo>  (39) 
-0.479516

>  <r_i_glide_hbond>  (39) 
0

>  <r_i_glide_metal>  (39) 
-0

>  <r_i_glide_rewards>  (39) 
-0.977505

>  <r_i_glide_evdw>  (39) 
-17.9948

>  <r_i_glide_ecoul>  (39) 
-0.796363

>  <r_i_glide_erotb>  (39) 
0.270492

>  <r_i_glide_esite>  (39) 
0

>  <r_i_glide_emodel>  (39) 
-20.6648

>  <r_i_glide_energy>  (39) 
-18.7911

>  <r_i_glide_einternal>  (39) 
0.728821

>  <r_i_glide_intrahb_reward>  (39) 
-0

>  <i_i_glide_confnum>  (39) 
2

>  <i_i_glide_posenum>  (39) 
17

>  <r_i_glide_eff_state_penalty>  (39) 
0

>  <ligand_id>  (39) 
13

>  <original_smiles>  (39) 
C=C(C)C(C)C1CCC2(C)OC3OC(OC)C(C)C4OC(C)(C)C2CCC314

>  <smiles>  (39) 
[H]C([H])=C(C([H])([H])[H])C([H])(C([H])([H])[H])C1([H])C([H])([H])C([H])([H])C2(C([H])([H])[H])OC3([H])OC([H])(OC([H])([H])[H])C([H])(C([H])([H])[H])C4([H])OC(C([H])([H])[H])(C([H])([H])[H])C2([H])C([H])([H])C([H])([H])C341

$$$$
15:0:0
     RDKit          3D

 31 33  0  0  1  0  0  0  0  0999 V2000
    1.7946   -3.7321    3.3130 C   0  0  0  0  0  0  0  0  0  0  0  0
    2.7732   -4.0750    2.3286 O   0  0  0  0  0  0  0  0  0  0  0  0
    3.3322   -3.0706    1.5570 C   0  0  0  0  0  0  0  0  0  0  0  0
    2.8726   -1.9086    1.7117 O   0  0  0  0  0  0  0  0  0  0  0  0
    4.3870   -3.4596    0.7301 C   0  0  0  0  0  0  0  0  0  0  0  0
    4.9816   -4.8452    0.7182 C   0  0  0  0  0  0  0  0  0  0  0  0
    4.1041   -6.0545    0.9338 C   0  0  0  0  0  0  0  0  0  0  0  0
    6.2237   -5.0488    0.4612 N   0  0  0  0  0  0  0  0  0  0  0  0
    7.0962   -4.0103    0.2920 C   0  0  0  0  0  0  0  0  0  0  0  0
    8.4244   -3.9619    0.3211 N   0  0  0  0  0  0  0  0  0  0  0  0
    8.7176   -2.6126    0.1519 N   0  0  0  0  0  0  0  0  0  0  0  0
    7.6409   -1.9021    0.0314 N   0  0  0  0  0  0  0  0  0  0  0  0
    6.6144   -2.7796    0.0925 N   0  0  0  0  0  0  0  0  0  0  0  0
    5.2190   -2.4163   -0.0227 C   0  0  1  0  0  0  0  0  0  0  0  0
    4.7734   -2.3186   -1.4857 C   0  0  0  0  0  0  0  0  0  0  0  0
    4.7721   -3.4470   -2.3349 C   0  0  0  0  0  0  0  0  0  0  0  0
    4.2778   -3.3214   -3.6435 C   0  0  0  0  0  0  0  0  0  0  0  0
    3.8141   -2.1641   -4.1547 N   0  0  0  0  0  0  0  0  0  0  0  0
    3.8137   -1.0821   -3.3482 C   0  0  0  0  0  0  0  0  0  0  0  0
    4.2846   -1.1046   -2.0170 C   0  0  0  0  0  0  0  0  0  0  0  0
    1.3835   -4.6469    3.7435 H   0  0  0  0  0  0  0  0  0  0  0  0
    0.9600   -3.1755    2.8815 H   0  0  0  0  0  0  0  0  0  0  0  0
    2.2322   -3.1491    4.1278 H   0  0  0  0  0  0  0  0  0  0  0  0
    3.0921   -5.8628    0.5739 H   0  0  0  0  0  0  0  0  0  0  0  0
    4.0757   -6.3322    1.9869 H   0  0  0  0  0  0  0  0  0  0  0  0
    4.4955   -6.9005    0.3603 H   0  0  0  0  0  0  0  0  0  0  0  0
    5.1106   -1.4458    0.4631 H   0  0  0  0  0  0  0  0  0  0  0  0
    5.1004   -4.4169   -1.9941 H   0  0  0  0  0  0  0  0  0  0  0  0
    4.2588   -4.1787   -4.3029 H   0  0  0  0  0  0  0  0  0  0  0  0
    3.4201   -0.1759   -3.7800 H   0  0  0  0  0  0  0  0  0  0  0  0
    4.2239   -0.2183   -1.4113 H   0  0  0  0  0  0  0  0  0  0  0  0
  1  2  1  0
  1 21  1  0
  1 22  1  0
  1 23  1  0
  2  3  1  0
  3  4  1  0
  3  5  2  0
  5 14  1  0
  5  6  1  0
  6  7  1  0
  6  8  2  0
  7 24  1  0
  7 25  1  0
  7 26  1  0
  8  9  1  0
  9 13  1  0
  9 10  2  0
 10 11  1  0
 11 12  2  0
 12 13  1  0
 13 14  1  0
 14 15  1  0
 14 27  1  1
 15 20  1  0
 15 16  2  0
 16 17  1  0
 16 28  1  0
 17 18  2  0
 17 29  1  0
 18 19  1  0
 19 20  2  0
 19 30  1  0
 20 31  1  0
M  CHG  1   4  -1
M  END
>  <i_m_ct_stereo_status>  (40) 
1

>  <s_m_source_file>  (40) 
/var/tmp/pbs.5083858.sched01/tmpz_rd3bwd/20sr47tjo2.sdf

>  <i_m_source_file_index>  (40) 
2

>  <i_lp_mmshare_version>  (40) 
48012

>  <i_f3d_flags>  (40) 
0

>  <s_epik_input>  (40) 
W0NIM11PQyg9TylbQ0BIXShDKD1OMSlbQ0gzXSlbQ0BASF0obihjMTIpbm5uMiljM1tjSF1bY0hdbltjSF1bY0hdMw==

>  <s_epik_cmdline>  (40) 
J2VwaWtfcHl0aG9uJywgJy1waHQnLCAnMi4wJywgJy1waCcsICc3LjAnLCAnLXRuJywgJzgnLCAnLW1hJywgJzIwMCcsICctaW1hZScsICc8aW5maWxlLm1hZT4nLCAnLW9tYWUnLCAnPG91dGZpbGUubWFlPic=

>  <r_epik_Ionization_Penalty>  (40) 
0.00597329

>  <r_epik_Ionization_Penalty_Charging>  (40) 
0

>  <r_epik_Ionization_Penalty_Neutral>  (40) 
0.00597329

>  <r_epik_State_Penalty>  (40) 
0.00536724

>  <r_epik_Charging_Adjusted_Penalty>  (40) 
0.00536724

>  <i_epik_Tot_Q>  (40) 
-1

>  <i_epik_Tot_abs_Q>  (40) 
1

>  <s_epik_Chemistry_Notes>  (40) 
This compound has an ester and may undergo hydrolysis at high or low pH. This compound has an imine and may undergo hydrolysis.

>  <s_lp_Force_Field>  (40) 
OPLS3e

>  <r_lp_Energy>  (40) 
37.7148

>  <b_lp_Chiralities_Consistent>  (40) 
1

>  <s_lp_Variant>  (40) 
15:0-1

>  <s_i_glide_gridfile>  (40) 
pfpi4k_grid

>  <i_i_glide_lignum>  (40) 
2

>  <i_i_glide_rotatable_bonds>  (40) 
2

>  <r_i_docking_score>  (40) 
-4.31099

>  <r_i_glide_ligand_efficiency>  (40) 
-0.21555

>  <r_i_glide_ligand_efficiency_sa>  (40) 
-0.585092

>  <r_i_glide_ligand_efficiency_ln>  (40) 
-1.0789

>  <r_i_glide_gscore>  (40) 
-4.31099

>  <r_i_glide_lipo>  (40) 
-0.537417

>  <r_i_glide_hbond>  (40) 
-0.316273

>  <r_i_glide_metal>  (40) 
-0

>  <r_i_glide_rewards>  (40) 
-1.91308

>  <r_i_glide_evdw>  (40) 
-28.3184

>  <r_i_glide_ecoul>  (40) 
-3.82995

>  <r_i_glide_erotb>  (40) 
0.486572

>  <r_i_glide_esite>  (40) 
-0.0403865

>  <r_i_glide_emodel>  (40) 
-37.2364

>  <r_i_glide_energy>  (40) 
-32.1483

>  <r_i_glide_einternal>  (40) 
5.70135

>  <r_i_glide_intrahb_reward>  (40) 
-0

>  <i_i_glide_confnum>  (40) 
5

>  <i_i_glide_posenum>  (40) 
28

>  <r_i_glide_eff_state_penalty>  (40) 
0

>  <ligand_id>  (40) 
15

>  <original_smiles>  (40) 
COC(=O)C1C(C)=Nc2nnnn2C1c1ccncc1

>  <smiles>  (40) 
[H]c1nc([H])c([H])c(C2([H])C(=C([O-])OC([H])([H])[H])C(C([H])([H])[H])=Nc3nnnn32)c1[H]

$$$$
15:0:1
     RDKit          3D

 31 33  0  0  1  0  0  0  0  0999 V2000
    2.7154   -7.6519    1.6726 C   0  0  0  0  0  0  0  0  0  0  0  0
    3.6107   -6.6205    1.2529 O   0  0  0  0  0  0  0  0  0  0  0  0
    3.0864   -5.4740    0.6905 C   0  0  0  0  0  0  0  0  0  0  0  0
    1.8608   -5.4688    0.4259 O   0  0  0  0  0  0  0  0  0  0  0  0
    4.0069   -4.4301    0.5245 C   0  0  0  0  0  0  0  0  0  0  0  0
    5.4575   -4.4659    0.9604 C   0  0  0  0  0  0  0  0  0  0  0  0
    6.2270   -5.7670    0.9179 C   0  0  0  0  0  0  0  0  0  0  0  0
    6.1043   -3.3990    1.2823 N   0  0  0  0  0  0  0  0  0  0  0  0
    5.4631   -2.2052    1.4231 C   0  0  0  0  0  0  0  0  0  0  0  0
    5.7838   -1.0933    2.0776 N   0  0  0  0  0  0  0  0  0  0  0  0
    4.6912   -0.2627    1.9023 N   0  0  0  0  0  0  0  0  0  0  0  0
    3.7858   -0.8205    1.1580 N   0  0  0  0  0  0  0  0  0  0  0  0
    4.2601   -2.0496    0.8637 N   0  0  0  0  0  0  0  0  0  0  0  0
    3.5525   -3.0340    0.0736 C   0  0  1  0  0  0  0  0  0  0  0  0
    3.8179   -2.8158   -1.4268 C   0  0  0  0  0  0  0  0  0  0  0  0
    4.6022   -3.7193   -2.1867 C   0  0  0  0  0  0  0  0  0  0  0  0
    4.7516   -3.5090   -3.5613 C   0  0  0  0  0  0  0  0  0  0  0  0
    4.2034   -2.4672   -4.2187 N   0  0  0  0  0  0  0  0  0  0  0  0
    3.4710   -1.5988   -3.5072 C   0  0  0  0  0  0  0  0  0  0  0  0
    3.2606   -1.7266   -2.1216 C   0  0  0  0  0  0  0  0  0  0  0  0
    3.2896   -8.5310    1.9699 H   0  0  0  0  0  0  0  0  0  0  0  0
    2.0318   -7.9691    0.8825 H   0  0  0  0  0  0  0  0  0  0  0  0
    2.1334   -7.3201    2.5345 H   0  0  0  0  0  0  0  0  0  0  0  0
    5.8552   -6.3873    0.1026 H   0  0  0  0  0  0  0  0  0  0  0  0
    6.1535   -6.3076    1.8607 H   0  0  0  0  0  0  0  0  0  0  0  0
    7.2795   -5.5620    0.7154 H   0  0  0  0  0  0  0  0  0  0  0  0
    2.4833   -2.9052    0.2605 H   0  0  0  0  0  0  0  0  0  0  0  0
    5.0296   -4.6209   -1.7647 H   0  0  0  0  0  0  0  0  0  0  0  0
    5.3181   -4.2113   -4.1553 H   0  0  0  0  0  0  0  0  0  0  0  0
    3.0411   -0.7833   -4.0622 H   0  0  0  0  0  0  0  0  0  0  0  0
    2.6293   -1.0110   -1.6155 H   0  0  0  0  0  0  0  0  0  0  0  0
  1  2  1  0
  1 21  1  0
  1 22  1  0
  1 23  1  0
  2  3  1  0
  3  4  1  0
  3  5  2  0
  5 14  1  0
  5  6  1  0
  6  7  1  0
  6  8  2  0
  7 24  1  0
  7 25  1  0
  7 26  1  0
  8  9  1  0
  9 13  1  0
  9 10  2  0
 10 11  1  0
 11 12  2  0
 12 13  1  0
 13 14  1  0
 14 15  1  0
 14 27  1  6
 15 20  1  0
 15 16  2  0
 16 17  1  0
 16 28  1  0
 17 18  2  0
 17 29  1  0
 18 19  1  0
 19 20  2  0
 19 30  1  0
 20 31  1  0
M  CHG  1   4  -1
M  END
>  <i_m_ct_stereo_status>  (41) 
1

>  <s_m_source_file>  (41) 
/var/tmp/pbs.5083858.sched01/tmpz_rd3bwd/20sr47tjo2.sdf

>  <i_m_source_file_index>  (41) 
2

>  <i_lp_mmshare_version>  (41) 
48012

>  <i_f3d_flags>  (41) 
0

>  <s_epik_input>  (41) 
W0NIM11PQyg9TylbQ0BIXShDKD1OMSlbQ0gzXSlbQ0BASF0obihjMTIpbm5uMiljM1tjSF1bY0hdbltjSF1bY0hdMw==

>  <s_epik_cmdline>  (41) 
J2VwaWtfcHl0aG9uJywgJy1waHQnLCAnMi4wJywgJy1waCcsICc3LjAnLCAnLXRuJywgJzgnLCAnLW1hJywgJzIwMCcsICctaW1hZScsICc8aW5maWxlLm1hZT4nLCAnLW9tYWUnLCAnPG91dGZpbGUubWFlPic=

>  <r_epik_Ionization_Penalty>  (41) 
0.00597329

>  <r_epik_Ionization_Penalty_Charging>  (41) 
0

>  <r_epik_Ionization_Penalty_Neutral>  (41) 
0.00597329

>  <r_epik_State_Penalty>  (41) 
0.00536724

>  <r_epik_Charging_Adjusted_Penalty>  (41) 
0.00536724

>  <i_epik_Tot_Q>  (41) 
-1

>  <i_epik_Tot_abs_Q>  (41) 
1

>  <s_epik_Chemistry_Notes>  (41) 
This compound has an ester and may undergo hydrolysis at high or low pH. This compound has an imine and may undergo hydrolysis.

>  <s_lp_Force_Field>  (41) 
OPLS3e

>  <r_lp_Energy>  (41) 
37.7148

>  <b_lp_Chiralities_Consistent>  (41) 
1

>  <s_lp_Variant>  (41) 
15:0-1

>  <s_i_glide_gridfile>  (41) 
pfpi4k_grid

>  <i_i_glide_lignum>  (41) 
2

>  <i_i_glide_rotatable_bonds>  (41) 
2

>  <r_i_docking_score>  (41) 
-3.68193

>  <r_i_glide_ligand_efficiency>  (41) 
-0.184096

>  <r_i_glide_ligand_efficiency_sa>  (41) 
-0.499714

>  <r_i_glide_ligand_efficiency_ln>  (41) 
-0.921465

>  <r_i_glide_gscore>  (41) 
-3.68193

>  <r_i_glide_lipo>  (41) 
-0.49555

>  <r_i_glide_hbond>  (41) 
-0.426563

>  <r_i_glide_metal>  (41) 
-0

>  <r_i_glide_rewards>  (41) 
-1.74825

>  <r_i_glide_evdw>  (41) 
-23.4664

>  <r_i_glide_ecoul>  (41) 
-2.08476

>  <r_i_glide_erotb>  (41) 
0.486572

>  <r_i_glide_esite>  (41) 
-0.0120937

>  <r_i_glide_emodel>  (41) 
-28.9953

>  <r_i_glide_energy>  (41) 
-25.5512

>  <r_i_glide_einternal>  (41) 
6.13214

>  <r_i_glide_intrahb_reward>  (41) 
-0

>  <i_i_glide_confnum>  (41) 
5

>  <i_i_glide_posenum>  (41) 
37

>  <r_i_glide_eff_state_penalty>  (41) 
0

>  <ligand_id>  (41) 
15

>  <original_smiles>  (41) 
COC(=O)C1C(C)=Nc2nnnn2C1c1ccncc1

>  <smiles>  (41) 
[H]c1nc([H])c([H])c(C2([H])C(=C([O-])OC([H])([H])[H])C(C([H])([H])[H])=Nc3nnnn32)c1[H]

$$$$
15:0:2
     RDKit          3D

 31 33  0  0  1  0  0  0  0  0999 V2000
    2.9732   -7.6081    1.5943 C   0  0  0  0  0  0  0  0  0  0  0  0
    3.7324   -6.4863    1.1230 O   0  0  0  0  0  0  0  0  0  0  0  0
    3.0609   -5.3717    0.6666 C   0  0  0  0  0  0  0  0  0  0  0  0
    1.8239   -5.4865    0.4917 O   0  0  0  0  0  0  0  0  0  0  0  0
    3.8243   -4.2152    0.5041 C   0  0  0  0  0  0  0  0  0  0  0  0
    5.2885   -4.1206    0.8460 C   0  0  0  0  0  0  0  0  0  0  0  0
    6.1885   -5.3179    0.6707 C   0  0  0  0  0  0  0  0  0  0  0  0
    5.8258   -3.0227    1.2534 N   0  0  0  0  0  0  0  0  0  0  0  0
    5.0608   -1.9307    1.5472 C   0  0  0  0  0  0  0  0  0  0  0  0
    5.3182   -0.8372    2.2535 N   0  0  0  0  0  0  0  0  0  0  0  0
    4.1306   -0.1199    2.2188 N   0  0  0  0  0  0  0  0  0  0  0  0
    3.2229   -0.7305    1.5168 N   0  0  0  0  0  0  0  0  0  0  0  0
    3.8029   -1.8758    1.0964 N   0  0  0  0  0  0  0  0  0  0  0  0
    3.1682   -2.8527    0.2398 C   0  0  1  0  0  0  0  0  0  0  0  0
    3.2859   -2.4941   -1.2480 C   0  0  0  0  0  0  0  0  0  0  0  0
    2.5589   -3.2192   -2.2205 C   0  0  0  0  0  0  0  0  0  0  0  0
    2.7288   -2.9047   -3.5822 C   0  0  0  0  0  0  0  0  0  0  0  0
    3.5539   -1.9319   -4.0197 N   0  0  0  0  0  0  0  0  0  0  0  0
    4.2160   -1.2232   -3.0887 C   0  0  0  0  0  0  0  0  0  0  0  0
    4.1343   -1.4642   -1.7111 C   0  0  0  0  0  0  0  0  0  0  0  0
    3.6500   -8.4417    1.7719 H   0  0  0  0  0  0  0  0  0  0  0  0
    2.2214   -7.9603    0.8805 H   0  0  0  0  0  0  0  0  0  0  0  0
    2.4755   -7.3708    2.5392 H   0  0  0  0  0  0  0  0  0  0  0  0
    5.8311   -5.9305   -0.1576 H   0  0  0  0  0  0  0  0  0  0  0  0
    6.2285   -5.9165    1.5814 H   0  0  0  0  0  0  0  0  0  0  0  0
    7.1986   -4.9841    0.4314 H   0  0  0  0  0  0  0  0  0  0  0  0
    2.1097   -2.8766    0.5139 H   0  0  0  0  0  0  0  0  0  0  0  0
    1.9023   -4.0298   -1.9450 H   0  0  0  0  0  0  0  0  0  0  0  0
    2.2002   -3.4534   -4.3471 H   0  0  0  0  0  0  0  0  0  0  0  0
    4.8407   -0.4273   -3.4551 H   0  0  0  0  0  0  0  0  0  0  0  0
    4.7173   -0.8493   -1.0444 H   0  0  0  0  0  0  0  0  0  0  0  0
  1  2  1  0
  1 21  1  0
  1 22  1  0
  1 23  1  0
  2  3  1  0
  3  4  1  0
  3  5  2  0
  5 14  1  0
  5  6  1  0
  6  7  1  0
  6  8  2  0
  7 24  1  0
  7 25  1  0
  7 26  1  0
  8  9  1  0
  9 13  1  0
  9 10  2  0
 10 11  1  0
 11 12  2  0
 12 13  1  0
 13 14  1  0
 14 15  1  0
 14 27  1  1
 15 20  1  0
 15 16  2  0
 16 17  1  0
 16 28  1  0
 17 18  2  0
 17 29  1  0
 18 19  1  0
 19 20  2  0
 19 30  1  0
 20 31  1  0
M  CHG  1   4  -1
M  END
>  <i_m_ct_stereo_status>  (42) 
1

>  <s_m_source_file>  (42) 
/var/tmp/pbs.5083858.sched01/tmpz_rd3bwd/20sr47tjo2.sdf

>  <i_m_source_file_index>  (42) 
2

>  <i_lp_mmshare_version>  (42) 
48012

>  <i_f3d_flags>  (42) 
0

>  <s_epik_input>  (42) 
W0NIM11PQyg9TylbQ0BIXShDKD1OMSlbQ0gzXSlbQ0BASF0obihjMTIpbm5uMiljM1tjSF1bY0hdbltjSF1bY0hdMw==

>  <s_epik_cmdline>  (42) 
J2VwaWtfcHl0aG9uJywgJy1waHQnLCAnMi4wJywgJy1waCcsICc3LjAnLCAnLXRuJywgJzgnLCAnLW1hJywgJzIwMCcsICctaW1hZScsICc8aW5maWxlLm1hZT4nLCAnLW9tYWUnLCAnPG91dGZpbGUubWFlPic=

>  <r_epik_Ionization_Penalty>  (42) 
0.00597329

>  <r_epik_Ionization_Penalty_Charging>  (42) 
0

>  <r_epik_Ionization_Penalty_Neutral>  (42) 
0.00597329

>  <r_epik_State_Penalty>  (42) 
0.00536724

>  <r_epik_Charging_Adjusted_Penalty>  (42) 
0.00536724

>  <i_epik_Tot_Q>  (42) 
-1

>  <i_epik_Tot_abs_Q>  (42) 
1

>  <s_epik_Chemistry_Notes>  (42) 
This compound has an ester and may undergo hydrolysis at high or low pH. This compound has an imine and may undergo hydrolysis.

>  <s_lp_Force_Field>  (42) 
OPLS3e

>  <r_lp_Energy>  (42) 
37.7148

>  <b_lp_Chiralities_Consistent>  (42) 
1

>  <s_lp_Variant>  (42) 
15:0-1

>  <s_i_glide_gridfile>  (42) 
pfpi4k_grid

>  <i_i_glide_lignum>  (42) 
2

>  <i_i_glide_rotatable_bonds>  (42) 
2

>  <r_i_docking_score>  (42) 
-3.31485

>  <r_i_glide_ligand_efficiency>  (42) 
-0.165742

>  <r_i_glide_ligand_efficiency_sa>  (42) 
-0.449894

>  <r_i_glide_ligand_efficiency_ln>  (42) 
-0.829597

>  <r_i_glide_gscore>  (42) 
-3.31485

>  <r_i_glide_lipo>  (42) 
-0.512871

>  <r_i_glide_hbond>  (42) 
-0.252574

>  <r_i_glide_metal>  (42) 
-0

>  <r_i_glide_rewards>  (42) 
-1.70919

>  <r_i_glide_evdw>  (42) 
-25.3569

>  <r_i_glide_ecoul>  (42) 
-0.0963967

>  <r_i_glide_erotb>  (42) 
0.486572

>  <r_i_glide_esite>  (42) 
-0.0444774

>  <r_i_glide_emodel>  (42) 
-28.4956

>  <r_i_glide_energy>  (42) 
-25.4533

>  <r_i_glide_einternal>  (42) 
6.75143

>  <r_i_glide_intrahb_reward>  (42) 
-0

>  <i_i_glide_confnum>  (42) 
5

>  <i_i_glide_posenum>  (42) 
40

>  <r_i_glide_eff_state_penalty>  (42) 
0

>  <ligand_id>  (42) 
15

>  <original_smiles>  (42) 
COC(=O)C1C(C)=Nc2nnnn2C1c1ccncc1

>  <smiles>  (42) 
[H]c1nc([H])c([H])c(C2([H])C(=C([O-])OC([H])([H])[H])C(C([H])([H])[H])=Nc3nnnn32)c1[H]

$$$$
16:0:0
     RDKit          3D

 81 85  0  0  1  0  0  0  0  0999 V2000
    8.4067   -6.1912    2.0008 C   0  0  0  0  0  0  0  0  0  0  0  0
    7.2307   -5.2739    1.7189 C   0  0  0  0  0  0  0  0  0  0  0  0
    6.4186   -5.0598    2.6133 O   0  0  0  0  0  0  0  0  0  0  0  0
    7.1529   -4.7370    0.4900 N   0  0  0  0  0  0  0  0  0  0  0  0
    6.1161   -3.8199    0.0206 C   0  0  2  0  0  0  0  0  0  0  0  0
    4.8127   -4.6017   -0.3299 C   0  0  1  0  0  0  0  0  0  0  0  0
    4.3193   -5.1814    0.8402 O   0  0  0  0  0  0  0  0  0  0  0  0
    3.4376   -6.2891    0.6830 C   0  0  2  0  0  0  0  0  0  0  0  0
    1.9986   -5.8771    1.0137 C   0  0  0  0  0  0  0  0  0  0  0  0
    1.6081   -6.2295    2.4548 C   0  0  0  0  0  0  0  0  0  0  0  0
    1.7135   -7.7531    2.8318 C   0  0  1  0  0  0  0  0  0  0  0  0
    0.3354   -8.3524    2.4214 C   0  0  0  0  0  0  0  0  0  0  0  0
    2.8399   -8.4421    1.9718 C   0  0  2  0  0  0  0  0  0  0  0  0
    3.5038   -9.7267    2.5292 C   0  0  0  0  0  0  0  0  0  0  0  0
    2.6207  -10.7423    3.2658 C   0  0  0  0  0  0  0  0  0  0  0  0
    2.4322  -10.4087    4.7490 C   0  0  0  0  0  0  0  0  0  0  0  0
    1.5415   -9.1925    5.1029 C   0  0  1  0  0  0  0  0  0  0  0  0
    1.4921   -9.0149    6.6547 C   0  0  2  0  0  0  0  0  0  0  0  0
    0.1956   -8.3638    7.1702 C   0  0  0  0  0  0  0  0  0  0  0  0
    0.4913   -7.8947    8.5939 C   0  0  0  0  0  0  0  0  0  0  0  0
    1.9960   -7.7081    8.5959 C   0  0  0  0  0  0  0  0  0  0  0  0
    2.6030   -7.1856    9.5288 O   0  0  0  0  0  0  0  0  0  0  0  0
    2.6588   -8.2268    7.3171 C   0  0  1  0  0  0  0  0  0  0  0  0
    3.8661   -9.1116    7.7039 C   0  0  0  0  0  0  0  0  0  0  0  0
    3.1090   -7.0098    6.4699 C   0  0  0  0  0  0  0  0  0  0  0  0
    3.2367   -7.3102    4.9688 C   0  0  0  0  0  0  0  0  0  0  0  0
    1.9011   -7.8461    4.3959 C   0  0  1  0  0  0  0  0  0  0  0  0
    3.9500   -7.4481    1.5574 C   0  0  0  0  0  0  0  0  0  0  0  0
    3.8553   -3.7246   -0.8490 O   0  0  0  0  0  0  0  0  0  0  0  0
    4.2177   -3.1041   -2.0741 C   0  0  1  0  0  0  0  0  0  0  0  0
    3.0337   -2.2839   -2.6219 C   0  0  0  0  0  0  0  0  0  0  0  0
    3.3339   -1.8397   -3.9330 O   0  0  0  0  0  0  0  0  0  0  0  0
    5.4933   -2.2629   -1.8570 C   0  0  1  0  0  0  0  0  0  0  0  0
    5.2280   -1.1237   -1.0575 O   0  0  0  0  0  0  0  0  0  0  0  0
    6.6195   -3.1099   -1.2542 C   0  0  1  0  0  0  0  0  0  0  0  0
    7.7520   -2.2696   -1.0340 O   0  0  0  0  0  0  0  0  0  0  0  0
    9.0286   -6.3283    1.1198 H   0  0  0  0  0  0  0  0  0  0  0  0
    8.0443   -7.1653    2.3285 H   0  0  0  0  0  0  0  0  0  0  0  0
    9.0079   -5.7574    2.7985 H   0  0  0  0  0  0  0  0  0  0  0  0
    7.8884   -4.9757   -0.1564 H   0  0  0  0  0  0  0  0  0  0  0  0
    5.8695   -3.0894    0.7910 H   0  0  0  0  0  0  0  0  0  0  0  0
    5.0327   -5.3757   -1.0676 H   0  0  0  0  0  0  0  0  0  0  0  0
    3.4473   -6.6443   -0.3385 H   0  0  0  0  0  0  0  0  0  0  0  0
    1.8821   -4.8071    0.8458 H   0  0  0  0  0  0  0  0  0  0  0  0
    1.3145   -6.3617    0.3183 H   0  0  0  0  0  0  0  0  0  0  0  0
    2.2242   -5.6062    3.1030 H   0  0  0  0  0  0  0  0  0  0  0  0
    0.5955   -5.8784    2.6360 H   0  0  0  0  0  0  0  0  0  0  0  0
    0.2661   -9.4265    2.5529 H   0  0  0  0  0  0  0  0  0  0  0  0
    0.1175   -8.1732    1.3693 H   0  0  0  0  0  0  0  0  0  0  0  0
   -0.4891   -7.9261    2.9927 H   0  0  0  0  0  0  0  0  0  0  0  0
    2.3652   -8.7597    1.0415 H   0  0  0  0  0  0  0  0  0  0  0  0
    3.9411  -10.2499    1.6792 H   0  0  0  0  0  0  0  0  0  0  0  0
    4.3574   -9.4782    3.1589 H   0  0  0  0  0  0  0  0  0  0  0  0
    1.6840  -10.9475    2.7530 H   0  0  0  0  0  0  0  0  0  0  0  0
    3.1502  -11.6937    3.2344 H   0  0  0  0  0  0  0  0  0  0  0  0
    2.0014  -11.2864    5.2322 H   0  0  0  0  0  0  0  0  0  0  0  0
    3.4161  -10.2991    5.1918 H   0  0  0  0  0  0  0  0  0  0  0  0
    0.5272   -9.4746    4.8124 H   0  0  0  0  0  0  0  0  0  0  0  0
    1.4949  -10.0137    7.0933 H   0  0  0  0  0  0  0  0  0  0  0  0
   -0.0889   -7.4990    6.5677 H   0  0  0  0  0  0  0  0  0  0  0  0
   -0.6304   -9.0770    7.1489 H   0  0  0  0  0  0  0  0  0  0  0  0
   -0.0256   -6.9693    8.8521 H   0  0  0  0  0  0  0  0  0  0  0  0
    0.2321   -8.6553    9.3309 H   0  0  0  0  0  0  0  0  0  0  0  0
    4.4485   -9.4306    6.8456 H   0  0  0  0  0  0  0  0  0  0  0  0
    3.5521  -10.0052    8.2404 H   0  0  0  0  0  0  0  0  0  0  0  0
    4.5609   -8.5841    8.3551 H   0  0  0  0  0  0  0  0  0  0  0  0
    2.4116   -6.1769    6.5978 H   0  0  0  0  0  0  0  0  0  0  0  0
    4.0707   -6.6444    6.8309 H   0  0  0  0  0  0  0  0  0  0  0  0
    3.5573   -6.3915    4.4797 H   0  0  0  0  0  0  0  0  0  0  0  0
    4.0464   -8.0191    4.8067 H   0  0  0  0  0  0  0  0  0  0  0  0
    1.1479   -7.1503    4.7581 H   0  0  0  0  0  0  0  0  0  0  0  0
    4.7383   -7.9732    1.0142 H   0  0  0  0  0  0  0  0  0  0  0  0
    4.4232   -7.0548    2.4524 H   0  0  0  0  0  0  0  0  0  0  0  0
    4.4383   -3.8985   -2.7912 H   0  0  0  0  0  0  0  0  0  0  0  0
    2.1255   -2.8865   -2.6515 H   0  0  0  0  0  0  0  0  0  0  0  0
    2.8070   -1.4238   -1.9882 H   0  0  0  0  0  0  0  0  0  0  0  0
    2.5925   -1.3432   -4.2584 H   0  0  0  0  0  0  0  0  0  0  0  0
    5.8164   -1.8984   -2.8261 H   0  0  0  0  0  0  0  0  0  0  0  0
    4.3941   -0.7651   -1.3223 H   0  0  0  0  0  0  0  0  0  0  0  0
    6.9019   -3.8569   -1.9975 H   0  0  0  0  0  0  0  0  0  0  0  0
    8.5037   -2.7949   -0.8214 H   0  0  0  0  0  0  0  0  0  0  0  0
  1  2  1  0
  1 37  1  0
  1 38  1  0
  1 39  1  0
  2  3  2  0
  2  4  1  0
  4  5  1  0
  4 40  1  0
  5 35  1  0
  5  6  1  0
  5 41  1  1
  6  7  1  0
  6 29  1  0
  6 42  1  6
  7  8  1  0
  8 28  1  0
  8  9  1  0
  8 43  1  6
  9 10  1  0
  9 44  1  0
  9 45  1  0
 10 11  1  0
 10 46  1  0
 10 47  1  0
 11 27  1  0
 11 12  1  1
 11 13  1  0
 12 48  1  0
 12 49  1  0
 12 50  1  0
 13 14  1  0
 13 28  1  0
 13 51  1  6
 14 15  1  0
 14 52  1  0
 14 53  1  0
 15 16  1  0
 15 54  1  0
 15 55  1  0
 16 17  1  0
 16 56  1  0
 16 57  1  0
 17 27  1  0
 17 18  1  0
 17 58  1  6
 18 23  1  0
 18 19  1  0
 18 59  1  1
 19 20  1  0
 19 60  1  0
 19 61  1  0
 20 21  1  0
 20 62  1  0
 20 63  1  0
 21 22  2  0
 21 23  1  0
 23 24  1  1
 23 25  1  0
 24 64  1  0
 24 65  1  0
 24 66  1  0
 25 26  1  0
 25 67  1  0
 25 68  1  0
 26 27  1  0
 26 69  1  0
 26 70  1  0
 27 71  1  1
 28 72  1  0
 28 73  1  0
 29 30  1  0
 30 31  1  0
 30 33  1  0
 30 74  1  6
 31 32  1  0
 31 75  1  0
 31 76  1  0
 32 77  1  0
 33 34  1  0
 33 35  1  0
 33 78  1  6
 34 79  1  0
 35 36  1  0
 35 80  1  6
 36 81  1  0
M  END
>  <i_m_ct_stereo_status>  (43) 
1

>  <s_m_source_file>  (43) 
/var/tmp/pbs.5083858.sched01/tmpz_rd3bwd/20sr47tjo2.sdf

>  <i_m_source_file_index>  (43) 
3

>  <i_lp_mmshare_version>  (43) 
48012

>  <i_f3d_flags>  (43) 
0

>  <s_epik_input>  (43) 
W09IXVtDQEBIXTFbQ0BIXShbT0hdKVtDQEhdKFtDSDJdW09IXSlPW0NAQEhdKFtDQEhdMVtOSF1DKD1PKVtDSDNdKU9bQ0BIXShbQ0gyXVtDSDJdMilbQ0gyXVtDQEhdKFtDQF0yM1tDSDNdKVtDSDJdW0NIMl1bQ0gyXVtDQEhdNFtDQEhdNVtDQF0oW0NIM10pKEMoPU8pW0NIMl1bQ0gyXTUpW0NIMl1bQ0gyXVtDQEBIXTM0

>  <s_epik_cmdline>  (43) 
J2VwaWtfcHl0aG9uJywgJy1waHQnLCAnMi4wJywgJy1waCcsICc3LjAnLCAnLXRuJywgJzgnLCAnLW1hJywgJzIwMCcsICctaW1hZScsICc8aW5maWxlLm1hZT4nLCAnLW9tYWUnLCAnPG91dGZpbGUubWFlPic=

>  <r_lp_tautomer_probability>  (43) 
1

>  <r_epik_Ionization_Penalty>  (43) 
1.07473e-06

>  <r_epik_Ionization_Penalty_Charging>  (43) 
0

>  <r_epik_Ionization_Penalty_Neutral>  (43) 
1.07473e-06

>  <r_epik_State_Penalty>  (43) 
-0

>  <r_epik_Charging_Adjusted_Penalty>  (43) 
0

>  <i_epik_Tot_Q>  (43) 
0

>  <i_epik_Tot_abs_Q>  (43) 
0

>  <s_epik_Chemistry_Notes>  (43) 
This compound contains an acetal/aminal-like group ( X-CH(R)-Y where X, Y are N, S, or O) that may be acid/base labile, releasing an aldehyde.

>  <s_lp_Force_Field>  (43) 
OPLS3e

>  <r_lp_Energy>  (43) 
51.1456

>  <b_lp_Chiralities_Consistent>  (43) 
1

>  <s_lp_Variant>  (43) 
16:0-1

>  <s_i_glide_gridfile>  (43) 
pfpi4k_grid

>  <i_i_glide_lignum>  (43) 
3

>  <i_i_glide_rotatable_bonds>  (43) 
8

>  <r_i_docking_score>  (43) 
-2.49997

>  <r_i_glide_ligand_efficiency>  (43) 
-0.0694436

>  <r_i_glide_ligand_efficiency_sa>  (43) 
-0.229298

>  <r_i_glide_ligand_efficiency_ln>  (43) 
-0.545426

>  <r_i_glide_gscore>  (43) 
-2.49997

>  <r_i_glide_lipo>  (43) 
-0.215935

>  <r_i_glide_hbond>  (43) 
0

>  <r_i_glide_metal>  (43) 
-0

>  <r_i_glide_rewards>  (43) 
-0.113481

>  <r_i_glide_evdw>  (43) 
-30.3473

>  <r_i_glide_ecoul>  (43) 
-6.43261

>  <r_i_glide_erotb>  (43) 
0.317683

>  <r_i_glide_esite>  (43) 
-0.00598154

>  <r_i_glide_emodel>  (43) 
-40.9911

>  <r_i_glide_energy>  (43) 
-36.7799

>  <r_i_glide_einternal>  (43) 
3.49428

>  <r_i_glide_intrahb_reward>  (43) 
-0

>  <i_i_glide_confnum>  (43) 
6

>  <i_i_glide_posenum>  (43) 
1

>  <r_i_glide_eff_state_penalty>  (43) 
0

>  <ligand_id>  (43) 
16

>  <original_smiles>  (43) 
CC(=O)NC1C(OC2CCC3(C)C(CCCC4C5CCC(=O)C5(C)CCC43)C2)OC(CO)C(O)C1O

>  <smiles>  (43) 
[H]OC([H])([H])C1([H])OC([H])(OC2([H])C([H])([H])C([H])([H])C3(C([H])([H])[H])C([H])(C([H])([H])C([H])([H])C([H])([H])C4([H])C5([H])C([H])([H])C([H])([H])C(=O)C5(C([H])([H])[H])C([H])([H])C([H])([H])C43[H])C2([H])[H])C([H])(N([H])C(=O)C([H])([H])[H])C([H])(O[H])C1([H])O[H]

$$$$
16:0:1
     RDKit          3D

 81 85  0  0  1  0  0  0  0  0999 V2000
    8.7462   -5.8399    1.5727 C   0  0  0  0  0  0  0  0  0  0  0  0
    7.4578   -5.0517    1.3658 C   0  0  0  0  0  0  0  0  0  0  0  0
    6.6993   -4.8817    2.3138 O   0  0  0  0  0  0  0  0  0  0  0  0
    7.2342   -4.5650    0.1333 N   0  0  0  0  0  0  0  0  0  0  0  0
    6.1280   -3.7022   -0.2829 C   0  0  2  0  0  0  0  0  0  0  0  0
    4.7892   -4.4904   -0.3848 C   0  0  1  0  0  0  0  0  0  0  0  0
    4.4612   -4.9526    0.8848 O   0  0  0  0  0  0  0  0  0  0  0  0
    3.4483   -5.9486    0.9691 C   0  0  2  0  0  0  0  0  0  0  0  0
    2.0730   -5.2888    1.1554 C   0  0  0  0  0  0  0  0  0  0  0  0
    1.6582   -5.1838    2.6293 C   0  0  0  0  0  0  0  0  0  0  0  0
    1.5465   -6.5491    3.3862 C   0  0  1  0  0  0  0  0  0  0  0  0
    0.0995   -7.0397    3.0846 C   0  0  0  0  0  0  0  0  0  0  0  0
    2.5685   -7.5782    2.7736 C   0  0  2  0  0  0  0  0  0  0  0  0
    3.0443   -8.7503    3.6672 C   0  0  0  0  0  0  0  0  0  0  0  0
    2.0219   -9.4064    4.6054 C   0  0  0  0  0  0  0  0  0  0  0  0
    1.8765   -8.6745    5.9436 C   0  0  0  0  0  0  0  0  0  0  0  0
    1.1599   -7.3015    5.9393 C   0  0  1  0  0  0  0  0  0  0  0  0
    1.1236   -6.7161    7.3885 C   0  0  2  0  0  0  0  0  0  0  0  0
   -0.0644   -5.7691    7.6617 C   0  0  0  0  0  0  0  0  0  0  0  0
    0.2934   -4.9989    8.9289 C   0  0  0  0  0  0  0  0  0  0  0  0
    1.8110   -5.0271    8.9436 C   0  0  0  0  0  0  0  0  0  0  0  0
    2.4844   -4.3692    9.7327 O   0  0  0  0  0  0  0  0  0  0  0  0
    2.3932   -5.9504    7.8709 C   0  0  1  0  0  0  0  0  0  0  0  0
    3.4639   -6.8573    8.5187 C   0  0  0  0  0  0  0  0  0  0  0  0
    3.0117   -5.0673    6.7583 C   0  0  0  0  0  0  0  0  0  0  0  0
    3.1048   -5.7647    5.3934 C   0  0  0  0  0  0  0  0  0  0  0  0
    1.7098   -6.2488    4.9249 C   0  0  1  0  0  0  0  0  0  0  0  0
    3.8022   -6.8829    2.1475 C   0  0  0  0  0  0  0  0  0  0  0  0
    3.7871   -3.6392   -0.8400 O   0  0  0  0  0  0  0  0  0  0  0  0
    3.9724   -3.1329   -2.1495 C   0  0  1  0  0  0  0  0  0  0  0  0
    2.7179   -2.3620   -2.5752 C   0  0  0  0  0  0  0  0  0  0  0  0
    2.8620   -1.9747   -3.9258 O   0  0  0  0  0  0  0  0  0  0  0  0
    5.2588   -2.2765   -2.1975 C   0  0  1  0  0  0  0  0  0  0  0  0
    5.1089   -1.0687   -1.4750 O   0  0  0  0  0  0  0  0  0  0  0  0
    6.4538   -3.0811   -1.6599 C   0  0  1  0  0  0  0  0  0  0  0  0
    7.6275   -2.2710   -1.5985 O   0  0  0  0  0  0  0  0  0  0  0  0
    9.3066   -5.9727    0.6481 H   0  0  0  0  0  0  0  0  0  0  0  0
    8.5141   -6.8244    1.9810 H   0  0  0  0  0  0  0  0  0  0  0  0
    9.3731   -5.3131    2.2933 H   0  0  0  0  0  0  0  0  0  0  0  0
    7.9289   -4.7812   -0.5628 H   0  0  0  0  0  0  0  0  0  0  0  0
    5.9835   -2.9181    0.4538 H   0  0  0  0  0  0  0  0  0  0  0  0
    4.8905   -5.3365   -1.0653 H   0  0  0  0  0  0  0  0  0  0  0  0
    3.4283   -6.5466    0.0595 H   0  0  0  0  0  0  0  0  0  0  0  0
    2.0813   -4.2828    0.7424 H   0  0  0  0  0  0  0  0  0  0  0  0
    1.3287   -5.8420    0.5867 H   0  0  0  0  0  0  0  0  0  0  0  0
    2.3559   -4.4970    3.1068 H   0  0  0  0  0  0  0  0  0  0  0  0
    0.7061   -4.6618    2.6919 H   0  0  0  0  0  0  0  0  0  0  0  0
   -0.1210   -8.0213    3.4864 H   0  0  0  0  0  0  0  0  0  0  0  0
   -0.0879   -7.1147    2.0138 H   0  0  0  0  0  0  0  0  0  0  0  0
   -0.6538   -6.3727    3.5003 H   0  0  0  0  0  0  0  0  0  0  0  0
    2.0571   -8.0583    1.9364 H   0  0  0  0  0  0  0  0  0  0  0  0
    3.4043   -9.5271    2.9909 H   0  0  0  0  0  0  0  0  0  0  0  0
    3.9204   -8.4611    4.2468 H   0  0  0  0  0  0  0  0  0  0  0  0
    1.0677   -9.6129    4.1268 H   0  0  0  0  0  0  0  0  0  0  0  0
    2.4115  -10.3936    4.8490 H   0  0  0  0  0  0  0  0  0  0  0  0
    1.3269   -9.3343    6.6162 H   0  0  0  0  0  0  0  0  0  0  0  0
    2.8647   -8.5855    6.3803 H   0  0  0  0  0  0  0  0  0  0  0  0
    0.1195   -7.5111    5.6860 H   0  0  0  0  0  0  0  0  0  0  0  0
    0.9881   -7.5587    8.0702 H   0  0  0  0  0  0  0  0  0  0  0  0
   -0.2186   -5.0627    6.8451 H   0  0  0  0  0  0  0  0  0  0  0  0
   -0.9860   -6.3165    7.8099 H   0  0  0  0  0  0  0  0  0  0  0  0
   -0.0921   -3.9792    8.9267 H   0  0  0  0  0  0  0  0  0  0  0  0
   -0.0718   -5.5006    9.8252 H   0  0  0  0  0  0  0  0  0  0  0  0
    4.0032   -7.4646    7.7998 H   0  0  0  0  0  0  0  0  0  0  0  0
    3.0306   -7.5279    9.2573 H   0  0  0  0  0  0  0  0  0  0  0  0
    4.2221   -6.2765    9.0389 H   0  0  0  0  0  0  0  0  0  0  0  0
    2.4391   -4.1428    6.6402 H   0  0  0  0  0  0  0  0  0  0  0  0
    4.0156   -4.7565    7.0497 H   0  0  0  0  0  0  0  0  0  0  0  0
    3.5551   -5.0602    4.6965 H   0  0  0  0  0  0  0  0  0  0  0  0
    3.8072   -6.5946    5.4563 H   0  0  0  0  0  0  0  0  0  0  0  0
    1.0590   -5.3864    5.0609 H   0  0  0  0  0  0  0  0  0  0  0  0
    4.5203   -7.6283    1.8050 H   0  0  0  0  0  0  0  0  0  0  0  0
    4.3183   -6.3185    2.9250 H   0  0  0  0  0  0  0  0  0  0  0  0
    4.0969   -3.9795   -2.8250 H   0  0  0  0  0  0  0  0  0  0  0  0
    1.8208   -2.9713   -2.4642 H   0  0  0  0  0  0  0  0  0  0  0  0
    2.5951   -1.4776   -1.9526 H   0  0  0  0  0  0  0  0  0  0  0  0
    2.0665   -1.5426   -4.2074 H   0  0  0  0  0  0  0  0  0  0  0  0
    5.4194   -2.0214   -3.2429 H   0  0  0  0  0  0  0  0  0  0  0  0
    4.2367   -0.7428   -1.6423 H   0  0  0  0  0  0  0  0  0  0  0  0
    6.6432   -3.8556   -2.4014 H   0  0  0  0  0  0  0  0  0  0  0  0
    8.3423   -2.7248   -2.0274 H   0  0  0  0  0  0  0  0  0  0  0  0
  1  2  1  0
  1 37  1  0
  1 38  1  0
  1 39  1  0
  2  3  2  0
  2  4  1  0
  4  5  1  0
  4 40  1  0
  5 35  1  0
  5  6  1  0
  5 41  1  1
  6  7  1  0
  6 29  1  0
  6 42  1  6
  7  8  1  0
  8 28  1  0
  8  9  1  0
  8 43  1  6
  9 10  1  0
  9 44  1  0
  9 45  1  0
 10 11  1  0
 10 46  1  0
 10 47  1  0
 11 27  1  0
 11 12  1  1
 11 13  1  0
 12 48  1  0
 12 49  1  0
 12 50  1  0
 13 14  1  0
 13 28  1  0
 13 51  1  6
 14 15  1  0
 14 52  1  0
 14 53  1  0
 15 16  1  0
 15 54  1  0
 15 55  1  0
 16 17  1  0
 16 56  1  0
 16 57  1  0
 17 27  1  0
 17 18  1  0
 17 58  1  6
 18 23  1  0
 18 19  1  0
 18 59  1  1
 19 20  1  0
 19 60  1  0
 19 61  1  0
 20 21  1  0
 20 62  1  0
 20 63  1  0
 21 22  2  0
 21 23  1  0
 23 24  1  1
 23 25  1  0
 24 64  1  0
 24 65  1  0
 24 66  1  0
 25 26  1  0
 25 67  1  0
 25 68  1  0
 26 27  1  0
 26 69  1  0
 26 70  1  0
 27 71  1  1
 28 72  1  0
 28 73  1  0
 29 30  1  0
 30 31  1  0
 30 33  1  0
 30 74  1  6
 31 32  1  0
 31 75  1  0
 31 76  1  0
 32 77  1  0
 33 34  1  0
 33 35  1  0
 33 78  1  6
 34 79  1  0
 35 36  1  0
 35 80  1  6
 36 81  1  0
M  END
>  <i_m_ct_stereo_status>  (44) 
1

>  <s_m_source_file>  (44) 
/var/tmp/pbs.5083858.sched01/tmpz_rd3bwd/20sr47tjo2.sdf

>  <i_m_source_file_index>  (44) 
3

>  <i_lp_mmshare_version>  (44) 
48012

>  <i_f3d_flags>  (44) 
0

>  <s_epik_input>  (44) 
W09IXVtDQEBIXTFbQ0BIXShbT0hdKVtDQEhdKFtDSDJdW09IXSlPW0NAQEhdKFtDQEhdMVtOSF1DKD1PKVtDSDNdKU9bQ0BIXShbQ0gyXVtDSDJdMilbQ0gyXVtDQEhdKFtDQF0yM1tDSDNdKVtDSDJdW0NIMl1bQ0gyXVtDQEhdNFtDQEhdNVtDQF0oW0NIM10pKEMoPU8pW0NIMl1bQ0gyXTUpW0NIMl1bQ0gyXVtDQEBIXTM0

>  <s_epik_cmdline>  (44) 
J2VwaWtfcHl0aG9uJywgJy1waHQnLCAnMi4wJywgJy1waCcsICc3LjAnLCAnLXRuJywgJzgnLCAnLW1hJywgJzIwMCcsICctaW1hZScsICc8aW5maWxlLm1hZT4nLCAnLW9tYWUnLCAnPG91dGZpbGUubWFlPic=

>  <r_lp_tautomer_probability>  (44) 
1

>  <r_epik_Ionization_Penalty>  (44) 
1.07473e-06

>  <r_epik_Ionization_Penalty_Charging>  (44) 
0

>  <r_epik_Ionization_Penalty_Neutral>  (44) 
1.07473e-06

>  <r_epik_State_Penalty>  (44) 
-0

>  <r_epik_Charging_Adjusted_Penalty>  (44) 
0

>  <i_epik_Tot_Q>  (44) 
0

>  <i_epik_Tot_abs_Q>  (44) 
0

>  <s_epik_Chemistry_Notes>  (44) 
This compound contains an acetal/aminal-like group ( X-CH(R)-Y where X, Y are N, S, or O) that may be acid/base labile, releasing an aldehyde.

>  <s_lp_Force_Field>  (44) 
OPLS3e

>  <r_lp_Energy>  (44) 
51.1456

>  <b_lp_Chiralities_Consistent>  (44) 
1

>  <s_lp_Variant>  (44) 
16:0-1

>  <s_i_glide_gridfile>  (44) 
pfpi4k_grid

>  <i_i_glide_lignum>  (44) 
3

>  <i_i_glide_rotatable_bonds>  (44) 
8

>  <r_i_docking_score>  (44) 
-2.39381

>  <r_i_glide_ligand_efficiency>  (44) 
-0.0664948

>  <r_i_glide_ligand_efficiency_sa>  (44) 
-0.219561

>  <r_i_glide_ligand_efficiency_ln>  (44) 
-0.522265

>  <r_i_glide_gscore>  (44) 
-2.39381

>  <r_i_glide_lipo>  (44) 
-0.197247

>  <r_i_glide_hbond>  (44) 
0

>  <r_i_glide_metal>  (44) 
-0

>  <r_i_glide_rewards>  (44) 
-0.164905

>  <r_i_glide_evdw>  (44) 
-24.5668

>  <r_i_glide_ecoul>  (44) 
-7.47337

>  <r_i_glide_erotb>  (44) 
0.317683

>  <r_i_glide_esite>  (44) 
0

>  <r_i_glide_emodel>  (44) 
-35.1442

>  <r_i_glide_energy>  (44) 
-32.0401

>  <r_i_glide_einternal>  (44) 
4.53812

>  <r_i_glide_intrahb_reward>  (44) 
-0

>  <i_i_glide_confnum>  (44) 
6

>  <i_i_glide_posenum>  (44) 
22

>  <r_i_glide_eff_state_penalty>  (44) 
0

>  <ligand_id>  (44) 
16

>  <original_smiles>  (44) 
CC(=O)NC1C(OC2CCC3(C)C(CCCC4C5CCC(=O)C5(C)CCC43)C2)OC(CO)C(O)C1O

>  <smiles>  (44) 
[H]OC([H])([H])C1([H])OC([H])(OC2([H])C([H])([H])C([H])([H])C3(C([H])([H])[H])C([H])(C([H])([H])C([H])([H])C([H])([H])C4([H])C5([H])C([H])([H])C([H])([H])C(=O)C5(C([H])([H])[H])C([H])([H])C([H])([H])C43[H])C2([H])[H])C([H])(N([H])C(=O)C([H])([H])[H])C([H])(O[H])C1([H])O[H]

$$$$
16:0:2
     RDKit          3D

 81 85  0  0  1  0  0  0  0  0999 V2000
    7.8950   -6.0319    2.3940 C   0  0  0  0  0  0  0  0  0  0  0  0
    6.7529   -5.0947    2.0287 C   0  0  0  0  0  0  0  0  0  0  0  0
    5.9367   -4.7687    2.8860 O   0  0  0  0  0  0  0  0  0  0  0  0
    6.7126   -4.6533    0.7619 N   0  0  0  0  0  0  0  0  0  0  0  0
    5.7093   -3.7472    0.2125 C   0  0  2  0  0  0  0  0  0  0  0  0
    4.4228   -4.5229   -0.1724 C   0  0  1  0  0  0  0  0  0  0  0  0
    3.8738   -5.0537    0.9946 O   0  0  0  0  0  0  0  0  0  0  0  0
    3.1925   -6.2990    0.8735 C   0  0  2  0  0  0  0  0  0  0  0  0
    1.7194   -6.1385    1.2742 C   0  0  0  0  0  0  0  0  0  0  0  0
    1.4463   -6.5388    2.7314 C   0  0  0  0  0  0  0  0  0  0  0  0
    1.8294   -8.0166    3.1035 C   0  0  1  0  0  0  0  0  0  0  0  0
    0.5625   -8.8487    2.7458 C   0  0  0  0  0  0  0  0  0  0  0  0
    3.0212   -8.5075    2.1967 C   0  0  2  0  0  0  0  0  0  0  0  0
    3.9249   -9.6478    2.7288 C   0  0  0  0  0  0  0  0  0  0  0  0
    3.2640  -10.7946    3.5013 C   0  0  0  0  0  0  0  0  0  0  0  0
    3.0736  -10.4861    4.9914 C   0  0  0  0  0  0  0  0  0  0  0  0
    1.9965   -9.4466    5.3808 C   0  0  1  0  0  0  0  0  0  0  0  0
    1.9714   -9.2705    6.9334 C   0  0  2  0  0  0  0  0  0  0  0  0
    0.5924   -8.8532    7.4954 C   0  0  0  0  0  0  0  0  0  0  0  0
    0.8627   -8.3300    8.9069 C   0  0  0  0  0  0  0  0  0  0  0  0
    2.3109   -7.8789    8.8524 C   0  0  0  0  0  0  0  0  0  0  0  0
    2.8500   -7.2528    9.7595 O   0  0  0  0  0  0  0  0  0  0  0  0
    3.0062   -8.2827    7.5496 C   0  0  1  0  0  0  0  0  0  0  0  0
    4.3653   -8.9355    7.8878 C   0  0  0  0  0  0  0  0  0  0  0  0
    3.2031   -7.0094    6.6868 C   0  0  0  0  0  0  0  0  0  0  0  0
    3.3281   -7.2941    5.1814 C   0  0  0  0  0  0  0  0  0  0  0  0
    2.0867   -8.0627    4.6589 C   0  0  1  0  0  0  0  0  0  0  0  0
    3.9262   -7.3409    1.7406 C   0  0  0  0  0  0  0  0  0  0  0  0
    3.5064   -3.6485   -0.7628 O   0  0  0  0  0  0  0  0  0  0  0  0
    3.9349   -3.0744   -1.9925 C   0  0  1  0  0  0  0  0  0  0  0  0
    2.7883   -2.2661   -2.6259 C   0  0  0  0  0  0  0  0  0  0  0  0
    3.1459   -1.8887   -3.9412 O   0  0  0  0  0  0  0  0  0  0  0  0
    5.2171   -2.2441   -1.7590 C   0  0  1  0  0  0  0  0  0  0  0  0
    4.9423   -1.0768   -1.0034 O   0  0  0  0  0  0  0  0  0  0  0  0
    6.2850   -3.0930   -1.0572 C   0  0  1  0  0  0  0  0  0  0  0  0
    7.4064   -2.2813   -0.7405 O   0  0  0  0  0  0  0  0  0  0  0  0
    8.5341   -6.2560    1.5407 H   0  0  0  0  0  0  0  0  0  0  0  0
    7.4974   -6.9695    2.7843 H   0  0  0  0  0  0  0  0  0  0  0  0
    8.5037   -5.5660    3.1687 H   0  0  0  0  0  0  0  0  0  0  0  0
    7.4644   -4.9321    0.1501 H   0  0  0  0  0  0  0  0  0  0  0  0
    5.4413   -2.9835    0.9393 H   0  0  0  0  0  0  0  0  0  0  0  0
    4.6838   -5.3148   -0.8776 H   0  0  0  0  0  0  0  0  0  0  0  0
    3.2144   -6.6433   -0.1536 H   0  0  0  0  0  0  0  0  0  0  0  0
    1.4167   -5.1053    1.1145 H   0  0  0  0  0  0  0  0  0  0  0  0
    1.0960   -6.7388    0.6132 H   0  0  0  0  0  0  0  0  0  0  0  0
    1.9593   -5.8100    3.3538 H   0  0  0  0  0  0  0  0  0  0  0  0
    0.3906   -6.3712    2.9438 H   0  0  0  0  0  0  0  0  0  0  0  0
    0.6883   -9.9171    2.8790 H   0  0  0  0  0  0  0  0  0  0  0  0
    0.2770   -8.7117    1.7030 H   0  0  0  0  0  0  0  0  0  0  0  0
   -0.2993   -8.5724    3.3514 H   0  0  0  0  0  0  0  0  0  0  0  0
    2.5735   -8.9066    1.2829 H   0  0  0  0  0  0  0  0  0  0  0  0
    4.4112  -10.0883    1.8564 H   0  0  0  0  0  0  0  0  0  0  0  0
    4.7435   -9.2456    3.3248 H   0  0  0  0  0  0  0  0  0  0  0  0
    2.3610  -11.1663    3.0237 H   0  0  0  0  0  0  0  0  0  0  0  0
    3.9512  -11.6376    3.4534 H   0  0  0  0  0  0  0  0  0  0  0  0
    2.8207  -11.4229    5.4926 H   0  0  0  0  0  0  0  0  0  0  0  0
    4.0390  -10.2020    5.3966 H   0  0  0  0  0  0  0  0  0  0  0  0
    1.0387   -9.9035    5.1274 H   0  0  0  0  0  0  0  0  0  0  0  0
    2.1725  -10.2531    7.3712 H   0  0  0  0  0  0  0  0  0  0  0  0
    0.1373   -8.0545    6.9056 H   0  0  0  0  0  0  0  0  0  0  0  0
   -0.0992   -9.6977    7.5042 H   0  0  0  0  0  0  0  0  0  0  0  0
    0.2039   -7.5101    9.1894 H   0  0  0  0  0  0  0  0  0  0  0  0
    0.7716   -9.1203    9.6525 H   0  0  0  0  0  0  0  0  0  0  0  0
    4.9644   -9.1536    7.0109 H   0  0  0  0  0  0  0  0  0  0  0  0
    4.2367   -9.8653    8.4373 H   0  0  0  0  0  0  0  0  0  0  0  0
    4.9794   -8.2911    8.5110 H   0  0  0  0  0  0  0  0  0  0  0  0
    2.3754   -6.3111    6.8393 H   0  0  0  0  0  0  0  0  0  0  0  0
    4.0996   -6.4781    7.0087 H   0  0  0  0  0  0  0  0  0  0  0  0
    3.4654   -6.3378    4.6785 H   0  0  0  0  0  0  0  0  0  0  0  0
    4.2440   -7.8518    4.9901 H   0  0  0  0  0  0  0  0  0  0  0  0
    1.2345   -7.5069    5.0490 H   0  0  0  0  0  0  0  0  0  0  0  0
    4.7793   -7.7179    1.1769 H   0  0  0  0  0  0  0  0  0  0  0  0
    4.3405   -6.8639    2.6283 H   0  0  0  0  0  0  0  0  0  0  0  0
    4.1725   -3.8957   -2.6692 H   0  0  0  0  0  0  0  0  0  0  0  0
    1.8686   -2.8540   -2.6608 H   0  0  0  0  0  0  0  0  0  0  0  0
    2.5938   -1.3706   -2.0400 H   0  0  0  0  0  0  0  0  0  0  0  0
    2.3915   -1.4982   -4.3646 H   0  0  0  0  0  0  0  0  0  0  0  0
    5.6061   -1.9215   -2.7232 H   0  0  0  0  0  0  0  0  0  0  0  0
    4.1127   -0.7319   -1.2977 H   0  0  0  0  0  0  0  0  0  0  0  0
    6.6094   -3.8517   -1.7646 H   0  0  0  0  0  0  0  0  0  0  0  0
    7.1944   -1.8177    0.0597 H   0  0  0  0  0  0  0  0  0  0  0  0
  1  2  1  0
  1 37  1  0
  1 38  1  0
  1 39  1  0
  2  3  2  0
  2  4  1  0
  4  5  1  0
  4 40  1  0
  5 35  1  0
  5  6  1  0
  5 41  1  1
  6  7  1  0
  6 29  1  0
  6 42  1  6
  7  8  1  0
  8 28  1  0
  8  9  1  0
  8 43  1  6
  9 10  1  0
  9 44  1  0
  9 45  1  0
 10 11  1  0
 10 46  1  0
 10 47  1  0
 11 27  1  0
 11 12  1  1
 11 13  1  0
 12 48  1  0
 12 49  1  0
 12 50  1  0
 13 14  1  0
 13 28  1  0
 13 51  1  6
 14 15  1  0
 14 52  1  0
 14 53  1  0
 15 16  1  0
 15 54  1  0
 15 55  1  0
 16 17  1  0
 16 56  1  0
 16 57  1  0
 17 27  1  0
 17 18  1  0
 17 58  1  6
 18 23  1  0
 18 19  1  0
 18 59  1  1
 19 20  1  0
 19 60  1  0
 19 61  1  0
 20 21  1  0
 20 62  1  0
 20 63  1  0
 21 22  2  0
 21 23  1  0
 23 24  1  1
 23 25  1  0
 24 64  1  0
 24 65  1  0
 24 66  1  0
 25 26  1  0
 25 67  1  0
 25 68  1  0
 26 27  1  0
 26 69  1  0
 26 70  1  0
 27 71  1  1
 28 72  1  0
 28 73  1  0
 29 30  1  0
 30 31  1  0
 30 33  1  0
 30 74  1  6
 31 32  1  0
 31 75  1  0
 31 76  1  0
 32 77  1  0
 33 34  1  0
 33 35  1  0
 33 78  1  6
 34 79  1  0
 35 36  1  0
 35 80  1  6
 36 81  1  0
M  END
>  <i_m_ct_stereo_status>  (45) 
1

>  <s_m_source_file>  (45) 
/var/tmp/pbs.5083858.sched01/tmpz_rd3bwd/20sr47tjo2.sdf

>  <i_m_source_file_index>  (45) 
3

>  <i_lp_mmshare_version>  (45) 
48012

>  <i_f3d_flags>  (45) 
0

>  <s_epik_input>  (45) 
W09IXVtDQEBIXTFbQ0BIXShbT0hdKVtDQEhdKFtDSDJdW09IXSlPW0NAQEhdKFtDQEhdMVtOSF1DKD1PKVtDSDNdKU9bQ0BIXShbQ0gyXVtDSDJdMilbQ0gyXVtDQEhdKFtDQF0yM1tDSDNdKVtDSDJdW0NIMl1bQ0gyXVtDQEhdNFtDQEhdNVtDQF0oW0NIM10pKEMoPU8pW0NIMl1bQ0gyXTUpW0NIMl1bQ0gyXVtDQEBIXTM0

>  <s_epik_cmdline>  (45) 
J2VwaWtfcHl0aG9uJywgJy1waHQnLCAnMi4wJywgJy1waCcsICc3LjAnLCAnLXRuJywgJzgnLCAnLW1hJywgJzIwMCcsICctaW1hZScsICc8aW5maWxlLm1hZT4nLCAnLW9tYWUnLCAnPG91dGZpbGUubWFlPic=

>  <r_lp_tautomer_probability>  (45) 
1

>  <r_epik_Ionization_Penalty>  (45) 
1.07473e-06

>  <r_epik_Ionization_Penalty_Charging>  (45) 
0

>  <r_epik_Ionization_Penalty_Neutral>  (45) 
1.07473e-06

>  <r_epik_State_Penalty>  (45) 
-0

>  <r_epik_Charging_Adjusted_Penalty>  (45) 
0

>  <i_epik_Tot_Q>  (45) 
0

>  <i_epik_Tot_abs_Q>  (45) 
0

>  <s_epik_Chemistry_Notes>  (45) 
This compound contains an acetal/aminal-like group ( X-CH(R)-Y where X, Y are N, S, or O) that may be acid/base labile, releasing an aldehyde.

>  <s_lp_Force_Field>  (45) 
OPLS3e

>  <r_lp_Energy>  (45) 
51.1456

>  <b_lp_Chiralities_Consistent>  (45) 
1

>  <s_lp_Variant>  (45) 
16:0-1

>  <s_i_glide_gridfile>  (45) 
pfpi4k_grid

>  <i_i_glide_lignum>  (45) 
3

>  <i_i_glide_rotatable_bonds>  (45) 
8

>  <r_i_docking_score>  (45) 
-2.13282

>  <r_i_glide_ligand_efficiency>  (45) 
-0.0592449

>  <r_i_glide_ligand_efficiency_sa>  (45) 
-0.195622

>  <r_i_glide_ligand_efficiency_ln>  (45) 
-0.465323

>  <r_i_glide_gscore>  (45) 
-2.13282

>  <r_i_glide_lipo>  (45) 
-0.184847

>  <r_i_glide_hbond>  (45) 
-0.00230252

>  <r_i_glide_metal>  (45) 
-0

>  <r_i_glide_rewards>  (45) 
-0.0701226

>  <r_i_glide_evdw>  (45) 
-28.6225

>  <r_i_glide_ecoul>  (45) 
-5.00398

>  <r_i_glide_erotb>  (45) 
0.317683

>  <r_i_glide_esite>  (45) 
-0.0115051

>  <r_i_glide_emodel>  (45) 
-36.0913

>  <r_i_glide_energy>  (45) 
-33.6265

>  <r_i_glide_einternal>  (45) 
4.73201

>  <r_i_glide_intrahb_reward>  (45) 
-0

>  <i_i_glide_confnum>  (45) 
6

>  <i_i_glide_posenum>  (45) 
9

>  <r_i_glide_eff_state_penalty>  (45) 
0

>  <ligand_id>  (45) 
16

>  <original_smiles>  (45) 
CC(=O)NC1C(OC2CCC3(C)C(CCCC4C5CCC(=O)C5(C)CCC43)C2)OC(CO)C(O)C1O

>  <smiles>  (45) 
[H]OC([H])([H])C1([H])OC([H])(OC2([H])C([H])([H])C([H])([H])C3(C([H])([H])[H])C([H])(C([H])([H])C([H])([H])C([H])([H])C4([H])C5([H])C([H])([H])C([H])([H])C(=O)C5(C([H])([H])[H])C([H])([H])C([H])([H])C43[H])C2([H])[H])C([H])(N([H])C(=O)C([H])([H])[H])C([H])(O[H])C1([H])O[H]

$$$$
17:0:0
     RDKit          3D

 26 28  0  0  1  0  0  0  0  0999 V2000
   -2.0934   -9.1692    2.5146 C   0  0  0  0  0  0  0  0  0  0  0  0
   -1.5717   -7.8534    3.1676 C   0  0  0  0  0  0  0  0  0  0  0  0
   -0.7220   -7.0595    2.3088 N   0  0  0  0  0  0  0  0  0  0  0  0
    0.5402   -7.2684    2.1115 C   0  0  0  0  0  0  0  0  0  0  0  0
    1.2642   -6.2819    1.4016 N   0  0  0  0  0  0  0  0  0  0  0  0
    2.5480   -6.4154    1.2536 C   0  0  0  0  0  0  0  0  0  0  0  0
    3.2870   -5.3469    0.6128 C   0  0  0  0  0  0  0  0  0  0  0  0
    4.6157   -5.2535    0.2858 C   0  0  0  0  0  0  0  0  0  0  0  0
    4.7739   -3.9881   -0.3382 C   0  0  0  0  0  0  0  0  0  0  0  0
    3.5296   -3.4109   -0.3453 C   0  0  0  0  0  0  0  0  0  0  0  0
    2.6169   -4.2263    0.2295 O   0  0  0  0  0  0  0  0  0  0  0  0
    3.3237   -7.5774    1.6467 N   0  0  0  0  0  0  0  0  0  0  0  0
    2.6219   -8.5028    2.2008 C   0  0  0  0  0  0  0  0  0  0  0  0
    2.9719   -9.8948    2.4852 N   0  0  0  0  0  0  0  0  0  0  0  0
    1.9847  -10.4743    2.9892 N   0  0  0  0  0  0  0  0  0  0  0  0
    0.9171   -9.6010    3.0881 N   0  0  0  0  0  0  0  0  0  0  0  0
    1.3076   -8.3702    2.5552 N   0  0  0  0  0  0  0  0  0  0  0  0
   -2.5963   -9.7183    3.2999 H   0  0  0  0  0  0  0  0  0  0  0  0
   -1.3574   -9.8792    2.1545 H   0  0  0  0  0  0  0  0  0  0  0  0
   -2.7613   -8.9871    1.6702 H   0  0  0  0  0  0  0  0  0  0  0  0
   -2.4411   -7.2293    3.3868 H   0  0  0  0  0  0  0  0  0  0  0  0
   -1.1076   -7.9857    4.1513 H   0  0  0  0  0  0  0  0  0  0  0  0
    5.3593   -6.0183    0.4750 H   0  0  0  0  0  0  0  0  0  0  0  0
    5.6701   -3.5462   -0.7373 H   0  0  0  0  0  0  0  0  0  0  0  0
    3.1278   -2.4758   -0.6983 H   0  0  0  0  0  0  0  0  0  0  0  0
    0.2075   -9.7072    3.8063 H   0  0  0  0  0  0  0  0  0  0  0  0
  1  2  1  0
  1 18  1  0
  1 19  1  0
  1 20  1  0
  2  3  1  0
  2 21  1  0
  2 22  1  0
  3  4  2  3
  4 17  1  0
  4  5  1  0
  5  6  2  0
  6  7  1  0
  6 12  1  0
  7 11  1  0
  7  8  2  0
  8  9  1  0
  8 23  1  0
  9 10  2  0
  9 24  1  0
 10 11  1  0
 10 25  1  0
 12 13  2  0
 13 17  1  0
 13 14  1  0
 14 15  2  0
 15 16  1  0
 16 17  1  0
 16 26  1  0
M  END
>  <i_m_ct_stereo_status>  (46) 
1

>  <s_m_source_file>  (46) 
/var/tmp/pbs.5083858.sched01/tmpz_rd3bwd/20sr47tjo2.sdf

>  <i_m_source_file_index>  (46) 
4

>  <i_lp_mmshare_version>  (46) 
48012

>  <i_f3d_flags>  (46) 
0

>  <s_epik_input>  (46) 
bjFubm4oYzEyKWMoPU5cW0NIMl1bQ0gzXSkvbmMoW25IXTIpLWMzW2NIXVtjSF1bY0hdbzM=

>  <s_epik_cmdline>  (46) 
J2VwaWtfcHl0aG9uJywgJy1waHQnLCAnMi4wJywgJy1waCcsICc3LjAnLCAnLXRuJywgJzgnLCAnLW1hJywgJzIwMCcsICctaW1hZScsICc8aW5maWxlLm1hZT4nLCAnLW9tYWUnLCAnPG91dGZpbGUubWFlPic=

>  <r_lp_tautomer_probability>  (46) 
1

>  <r_epik_Ionization_Penalty>  (46) 
34.2581

>  <r_epik_Ionization_Penalty_Charging>  (46) 
34.2581

>  <r_epik_Ionization_Penalty_Neutral>  (46) 
3.99365e-08

>  <r_epik_State_Penalty>  (46) 
-0

>  <r_epik_Charging_Adjusted_Penalty>  (46) 
34.2581

>  <i_epik_Tot_Q>  (46) 
0

>  <i_epik_Tot_abs_Q>  (46) 
0

>  <s_lp_Force_Field>  (46) 
OPLS3e

>  <r_lp_Energy>  (46) 
35.6932

>  <b_lp_Chiralities_Consistent>  (46) 
1

>  <s_lp_Variant>  (46) 
17:0-1

>  <s_i_glide_gridfile>  (46) 
pfpi4k_grid

>  <i_i_glide_lignum>  (46) 
4

>  <i_i_glide_rotatable_bonds>  (46) 
2

>  <r_i_docking_score>  (46) 
-3.72632

>  <r_i_glide_ligand_efficiency>  (46) 
-0.219195

>  <r_i_glide_ligand_efficiency_sa>  (46) 
-0.563612

>  <r_i_glide_ligand_efficiency_ln>  (46) 
-0.972113

>  <r_i_glide_gscore>  (46) 
-3.72632

>  <r_i_glide_lipo>  (46) 
-0.304281

>  <r_i_glide_hbond>  (46) 
-0.246173

>  <r_i_glide_metal>  (46) 
-0

>  <r_i_glide_rewards>  (46) 
-1.83263

>  <r_i_glide_evdw>  (46) 
-25.3219

>  <r_i_glide_ecoul>  (46) 
-3.88088

>  <r_i_glide_erotb>  (46) 
0.639842

>  <r_i_glide_esite>  (46) 
-0.134845

>  <r_i_glide_emodel>  (46) 
-35.1435

>  <r_i_glide_energy>  (46) 
-29.2028

>  <r_i_glide_einternal>  (46) 
0.397907

>  <r_i_glide_intrahb_reward>  (46) 
-0

>  <i_i_glide_confnum>  (46) 
3

>  <i_i_glide_posenum>  (46) 
23

>  <r_i_glide_eff_state_penalty>  (46) 
0

>  <ligand_id>  (46) 
17

>  <original_smiles>  (46) 
CCN=c1nc(-c2ccco2)[nH]c2nnnn12

>  <smiles>  (46) 
[H]c1oc(-c2nc(=NC([H])([H])C([H])([H])[H])n3c(nnn3[H])n2)c([H])c1[H]

$$$$
17:0:1
     RDKit          3D

 26 28  0  0  1  0  0  0  0  0999 V2000
   -3.8790    3.5141    2.3279 C   0  0  0  0  0  0  0  0  0  0  0  0
   -2.4268    3.9788    2.5725 C   0  0  0  0  0  0  0  0  0  0  0  0
   -2.1936    4.1225    3.9951 N   0  0  0  0  0  0  0  0  0  0  0  0
   -1.9775    3.1151    4.7898 C   0  0  0  0  0  0  0  0  0  0  0  0
   -2.1709    3.3232    6.1688 N   0  0  0  0  0  0  0  0  0  0  0  0
   -1.9493    2.3529    7.0026 C   0  0  0  0  0  0  0  0  0  0  0  0
   -2.1859    2.6084    8.4046 C   0  0  0  0  0  0  0  0  0  0  0  0
   -3.0426    3.4478    9.0622 C   0  0  0  0  0  0  0  0  0  0  0  0
   -2.7984    3.2476   10.4472 C   0  0  0  0  0  0  0  0  0  0  0  0
   -1.7959    2.3237   10.5238 C   0  0  0  0  0  0  0  0  0  0  0  0
   -1.4272    1.9023    9.2896 O   0  0  0  0  0  0  0  0  0  0  0  0
   -1.4545    1.0351    6.6439 N   0  0  0  0  0  0  0  0  0  0  0  0
   -1.2622    0.8854    5.3735 C   0  0  0  0  0  0  0  0  0  0  0  0
   -0.5553   -0.1855    4.6861 N   0  0  0  0  0  0  0  0  0  0  0  0
   -0.4527    0.1274    3.4771 N   0  0  0  0  0  0  0  0  0  0  0  0
   -1.0449    1.3421    3.2435 N   0  0  0  0  0  0  0  0  0  0  0  0
   -1.5973    1.8093    4.4268 N   0  0  0  0  0  0  0  0  0  0  0  0
   -4.1141    3.4273    1.2674 H   0  0  0  0  0  0  0  0  0  0  0  0
   -4.6080    4.1973    2.7612 H   0  0  0  0  0  0  0  0  0  0  0  0
   -4.0580    2.5424    2.7837 H   0  0  0  0  0  0  0  0  0  0  0  0
   -1.7053    3.3405    2.0805 H   0  0  0  0  0  0  0  0  0  0  0  0
   -2.2811    4.9486    2.0908 H   0  0  0  0  0  0  0  0  0  0  0  0
   -3.7698    4.1002    8.6017 H   0  0  0  0  0  0  0  0  0  0  0  0
   -3.3007    3.6953   11.2929 H   0  0  0  0  0  0  0  0  0  0  0  0
   -1.3057    1.8389   11.3579 H   0  0  0  0  0  0  0  0  0  0  0  0
   -1.5957    1.4139    2.3874 H   0  0  0  0  0  0  0  0  0  0  0  0
  1  2  1  0
  1 18  1  0
  1 19  1  0
  1 20  1  0
  2  3  1  0
  2 21  1  0
  2 22  1  0
  3  4  2  3
  4 17  1  0
  4  5  1  0
  5  6  2  0
  6  7  1  0
  6 12  1  0
  7 11  1  0
  7  8  2  0
  8  9  1  0
  8 23  1  0
  9 10  2  0
  9 24  1  0
 10 11  1  0
 10 25  1  0
 12 13  2  0
 13 17  1  0
 13 14  1  0
 14 15  2  0
 15 16  1  0
 16 17  1  0
 16 26  1  0
M  END
>  <i_m_ct_stereo_status>  (47) 
1

>  <s_m_source_file>  (47) 
/var/tmp/pbs.5083858.sched01/tmpz_rd3bwd/20sr47tjo2.sdf

>  <i_m_source_file_index>  (47) 
4

>  <i_lp_mmshare_version>  (47) 
48012

>  <i_f3d_flags>  (47) 
0

>  <s_epik_input>  (47) 
bjFubm4oYzEyKWMoPU5cW0NIMl1bQ0gzXSkvbmMoW25IXTIpLWMzW2NIXVtjSF1bY0hdbzM=

>  <s_epik_cmdline>  (47) 
J2VwaWtfcHl0aG9uJywgJy1waHQnLCAnMi4wJywgJy1waCcsICc3LjAnLCAnLXRuJywgJzgnLCAnLW1hJywgJzIwMCcsICctaW1hZScsICc8aW5maWxlLm1hZT4nLCAnLW9tYWUnLCAnPG91dGZpbGUubWFlPic=

>  <r_lp_tautomer_probability>  (47) 
1

>  <r_epik_Ionization_Penalty>  (47) 
34.2581

>  <r_epik_Ionization_Penalty_Charging>  (47) 
34.2581

>  <r_epik_Ionization_Penalty_Neutral>  (47) 
3.99365e-08

>  <r_epik_State_Penalty>  (47) 
-0

>  <r_epik_Charging_Adjusted_Penalty>  (47) 
34.2581

>  <i_epik_Tot_Q>  (47) 
0

>  <i_epik_Tot_abs_Q>  (47) 
0

>  <s_lp_Force_Field>  (47) 
OPLS3e

>  <r_lp_Energy>  (47) 
35.6932

>  <b_lp_Chiralities_Consistent>  (47) 
1

>  <s_lp_Variant>  (47) 
17:0-1

>  <s_i_glide_gridfile>  (47) 
pfpi4k_grid

>  <i_i_glide_lignum>  (47) 
4

>  <i_i_glide_rotatable_bonds>  (47) 
2

>  <r_i_docking_score>  (47) 
-3.71123

>  <r_i_glide_ligand_efficiency>  (47) 
-0.218308

>  <r_i_glide_ligand_efficiency_sa>  (47) 
-0.561331

>  <r_i_glide_ligand_efficiency_ln>  (47) 
-0.968178

>  <r_i_glide_gscore>  (47) 
-3.71123

>  <r_i_glide_lipo>  (47) 
-0.261491

>  <r_i_glide_hbond>  (47) 
-0.117602

>  <r_i_glide_metal>  (47) 
-0

>  <r_i_glide_rewards>  (47) 
-1.83697

>  <r_i_glide_evdw>  (47) 
-22.6271

>  <r_i_glide_ecoul>  (47) 
-5.68661

>  <r_i_glide_erotb>  (47) 
0.639842

>  <r_i_glide_esite>  (47) 
-0.150666

>  <r_i_glide_emodel>  (47) 
-34.549

>  <r_i_glide_energy>  (47) 
-28.3137

>  <r_i_glide_einternal>  (47) 
1.72777

>  <r_i_glide_intrahb_reward>  (47) 
-0

>  <i_i_glide_confnum>  (47) 
5

>  <i_i_glide_posenum>  (47) 
27

>  <r_i_glide_eff_state_penalty>  (47) 
0

>  <ligand_id>  (47) 
17

>  <original_smiles>  (47) 
CCN=c1nc(-c2ccco2)[nH]c2nnnn12

>  <smiles>  (47) 
[H]c1oc(-c2nc(=NC([H])([H])C([H])([H])[H])n3c(nnn3[H])n2)c([H])c1[H]

$$$$
17:0:2
     RDKit          3D

 26 28  0  0  1  0  0  0  0  0999 V2000
    1.1821  -11.3337    4.7719 C   0  0  0  0  0  0  0  0  0  0  0  0
    1.6443  -11.2961    3.2934 C   0  0  0  0  0  0  0  0  0  0  0  0
    2.3414  -10.0766    2.9275 N   0  0  0  0  0  0  0  0  0  0  0  0
    1.7503   -8.9970    2.5074 C   0  0  0  0  0  0  0  0  0  0  0  0
    2.5561   -7.9625    1.9797 N   0  0  0  0  0  0  0  0  0  0  0  0
    1.9950   -6.8877    1.5271 C   0  0  0  0  0  0  0  0  0  0  0  0
    2.8428   -5.8900    0.9016 C   0  0  0  0  0  0  0  0  0  0  0  0
    4.1939   -5.8441    0.6782 C   0  0  0  0  0  0  0  0  0  0  0  0
    4.4353   -4.5992    0.0289 C   0  0  0  0  0  0  0  0  0  0  0  0
    3.2196   -3.9887   -0.0975 C   0  0  0  0  0  0  0  0  0  0  0  0
    2.2382   -4.7681    0.4252 O   0  0  0  0  0  0  0  0  0  0  0  0
    0.5764   -6.5768    1.6046 N   0  0  0  0  0  0  0  0  0  0  0  0
   -0.1228   -7.5064    2.1737 C   0  0  0  0  0  0  0  0  0  0  0  0
   -1.4860   -7.4387    2.6566 N   0  0  0  0  0  0  0  0  0  0  0  0
   -1.7564   -8.5232    3.2352 N   0  0  0  0  0  0  0  0  0  0  0  0
   -0.6562   -9.3487    3.2501 N   0  0  0  0  0  0  0  0  0  0  0  0
    0.3697   -8.7429    2.5213 N   0  0  0  0  0  0  0  0  0  0  0  0
    0.6448  -12.2692    4.9515 H   0  0  0  0  0  0  0  0  0  0  0  0
    0.5072  -10.5280    5.0536 H   0  0  0  0  0  0  0  0  0  0  0  0
    2.0233  -11.2879    5.4689 H   0  0  0  0  0  0  0  0  0  0  0  0
    2.3492  -12.1180    3.1449 H   0  0  0  0  0  0  0  0  0  0  0  0
    0.8250  -11.5106    2.6014 H   0  0  0  0  0  0  0  0  0  0  0  0
    4.8973   -6.6143    0.9527 H   0  0  0  0  0  0  0  0  0  0  0  0
    5.3789   -4.2016   -0.3102 H   0  0  0  0  0  0  0  0  0  0  0  0
    2.8810   -3.0521   -0.5167 H   0  0  0  0  0  0  0  0  0  0  0  0
   -0.8179  -10.3532    3.1624 H   0  0  0  0  0  0  0  0  0  0  0  0
  1  2  1  0
  1 18  1  0
  1 19  1  0
  1 20  1  0
  2  3  1  0
  2 21  1  0
  2 22  1  0
  3  4  2  3
  4 17  1  0
  4  5  1  0
  5  6  2  0
  6  7  1  0
  6 12  1  0
  7 11  1  0
  7  8  2  0
  8  9  1  0
  8 23  1  0
  9 10  2  0
  9 24  1  0
 10 11  1  0
 10 25  1  0
 12 13  2  0
 13 17  1  0
 13 14  1  0
 14 15  2  0
 15 16  1  0
 16 17  1  0
 16 26  1  0
M  END
>  <i_m_ct_stereo_status>  (48) 
1

>  <s_m_source_file>  (48) 
/var/tmp/pbs.5083858.sched01/tmpz_rd3bwd/20sr47tjo2.sdf

>  <i_m_source_file_index>  (48) 
4

>  <i_lp_mmshare_version>  (48) 
48012

>  <i_f3d_flags>  (48) 
0

>  <s_epik_input>  (48) 
bjFubm4oYzEyKWMoPU5cW0NIMl1bQ0gzXSkvbmMoW25IXTIpLWMzW2NIXVtjSF1bY0hdbzM=

>  <s_epik_cmdline>  (48) 
J2VwaWtfcHl0aG9uJywgJy1waHQnLCAnMi4wJywgJy1waCcsICc3LjAnLCAnLXRuJywgJzgnLCAnLW1hJywgJzIwMCcsICctaW1hZScsICc8aW5maWxlLm1hZT4nLCAnLW9tYWUnLCAnPG91dGZpbGUubWFlPic=

>  <r_lp_tautomer_probability>  (48) 
1

>  <r_epik_Ionization_Penalty>  (48) 
34.2581

>  <r_epik_Ionization_Penalty_Charging>  (48) 
34.2581

>  <r_epik_Ionization_Penalty_Neutral>  (48) 
3.99365e-08

>  <r_epik_State_Penalty>  (48) 
-0

>  <r_epik_Charging_Adjusted_Penalty>  (48) 
34.2581

>  <i_epik_Tot_Q>  (48) 
0

>  <i_epik_Tot_abs_Q>  (48) 
0

>  <s_lp_Force_Field>  (48) 
OPLS3e

>  <r_lp_Energy>  (48) 
35.6932

>  <b_lp_Chiralities_Consistent>  (48) 
1

>  <s_lp_Variant>  (48) 
17:0-1

>  <s_i_glide_gridfile>  (48) 
pfpi4k_grid

>  <i_i_glide_lignum>  (48) 
4

>  <i_i_glide_rotatable_bonds>  (48) 
2

>  <r_i_docking_score>  (48) 
-3.62162

>  <r_i_glide_ligand_efficiency>  (48) 
-0.213037

>  <r_i_glide_ligand_efficiency_sa>  (48) 
-0.547777

>  <r_i_glide_ligand_efficiency_ln>  (48) 
-0.944801

>  <r_i_glide_gscore>  (48) 
-3.62162

>  <r_i_glide_lipo>  (48) 
-0.257653

>  <r_i_glide_hbond>  (48) 
-0.101481

>  <r_i_glide_metal>  (48) 
-0

>  <r_i_glide_rewards>  (48) 
-1.85941

>  <r_i_glide_evdw>  (48) 
-26.8074

>  <r_i_glide_ecoul>  (48) 
-2.51278

>  <r_i_glide_erotb>  (48) 
0.639842

>  <r_i_glide_esite>  (48) 
-0.325631

>  <r_i_glide_emodel>  (48) 
-36.1481

>  <r_i_glide_energy>  (48) 
-29.3202

>  <r_i_glide_einternal>  (48) 
0.287484

>  <r_i_glide_intrahb_reward>  (48) 
-0

>  <i_i_glide_confnum>  (48) 
2

>  <i_i_glide_posenum>  (48) 
32

>  <r_i_glide_eff_state_penalty>  (48) 
0

>  <ligand_id>  (48) 
17

>  <original_smiles>  (48) 
CCN=c1nc(-c2ccco2)[nH]c2nnnn12

>  <smiles>  (48) 
[H]c1oc(-c2nc(=NC([H])([H])C([H])([H])[H])n3c(nnn3[H])n2)c([H])c1[H]

$$$$
17:1:0
     RDKit          3D

 26 28  0  0  1  0  0  0  0  0999 V2000
   -4.7791    4.5521    1.9572 C   0  0  0  0  0  0  0  0  0  0  0  0
   -3.8148    3.6023    2.6913 C   0  0  0  0  0  0  0  0  0  0  0  0
   -2.5435    4.2649    2.8996 N   0  0  0  0  0  0  0  0  0  0  0  0
   -1.5952    3.6141    3.5142 C   0  0  0  0  0  0  0  0  0  0  0  0
   -1.6610    2.2775    3.9756 N   0  0  0  0  0  0  0  0  0  0  0  0
   -0.6794    1.8027    4.6820 C   0  0  0  0  0  0  0  0  0  0  0  0
   -0.7639    0.4234    5.1533 C   0  0  0  0  0  0  0  0  0  0  0  0
   -1.7232   -0.5378    5.0114 C   0  0  0  0  0  0  0  0  0  0  0  0
   -1.2338   -1.6985    5.6806 C   0  0  0  0  0  0  0  0  0  0  0  0
   -0.0226   -1.3472    6.2018 C   0  0  0  0  0  0  0  0  0  0  0  0
    0.2742   -0.0566    5.8994 O   0  0  0  0  0  0  0  0  0  0  0  0
    0.5014    2.5539    5.0884 N   0  0  0  0  0  0  0  0  0  0  0  0
    0.5346    3.7708    4.6374 C   0  0  0  0  0  0  0  0  0  0  0  0
    1.4276    4.8662    4.9650 N   0  0  0  0  0  0  0  0  0  0  0  0
    1.0326    5.9000    4.3596 N   0  0  0  0  0  0  0  0  0  0  0  0
   -0.1094    5.6314    3.6360 N   0  0  0  0  0  0  0  0  0  0  0  0
   -0.4036    4.2851    3.7969 N   0  0  0  0  0  0  0  0  0  0  0  0
   -5.7829    4.1320    1.8782 H   0  0  0  0  0  0  0  0  0  0  0  0
   -4.4384    4.7708    0.9467 H   0  0  0  0  0  0  0  0  0  0  0  0
   -4.8706    5.5045    2.4754 H   0  0  0  0  0  0  0  0  0  0  0  0
   -4.2614    3.3232    3.6465 H   0  0  0  0  0  0  0  0  0  0  0  0
   -3.6959    2.6793    2.1237 H   0  0  0  0  0  0  0  0  0  0  0  0
   -2.6518   -0.3999    4.4801 H   0  0  0  0  0  0  0  0  0  0  0  0
   -1.7054   -2.6635    5.7729 H   0  0  0  0  0  0  0  0  0  0  0  0
    0.7258   -1.8654    6.7905 H   0  0  0  0  0  0  0  0  0  0  0  0
   -0.1049    5.9807    2.6737 H   0  0  0  0  0  0  0  0  0  0  0  0
  1  2  1  0
  1 18  1  0
  1 19  1  0
  1 20  1  0
  2  3  1  0
  2 21  1  0
  2 22  1  0
  3  4  2  3
  4 17  1  0
  4  5  1  0
  5  6  2  0
  6  7  1  0
  6 12  1  0
  7 11  1  0
  7  8  2  0
  8  9  1  0
  8 23  1  0
  9 10  2  0
  9 24  1  0
 10 11  1  0
 10 25  1  0
 12 13  2  0
 13 17  1  0
 13 14  1  0
 14 15  2  0
 15 16  1  0
 16 17  1  0
 16 26  1  0
M  END
>  <i_m_ct_stereo_status>  (49) 
1

>  <s_m_source_file>  (49) 
/var/tmp/pbs.5083858.sched01/tmpz_rd3bwd/20sr47tjo2.sdf

>  <i_m_source_file_index>  (49) 
5

>  <i_lp_mmshare_version>  (49) 
48012

>  <i_f3d_flags>  (49) 
0

>  <s_epik_input>  (49) 
bjFubm4oYzEyKWMoPU5cW0NIMl1bQ0gzXSkvbmMoW25IXTIpLWMzW2NIXVtjSF1bY0hdbzM=

>  <s_epik_cmdline>  (49) 
J2VwaWtfcHl0aG9uJywgJy1waHQnLCAnMi4wJywgJy1waCcsICc3LjAnLCAnLXRuJywgJzgnLCAnLW1hJywgJzIwMCcsICctaW1hZScsICc8aW5maWxlLm1hZT4nLCAnLW9tYWUnLCAnPG91dGZpbGUubWFlPic=

>  <r_lp_tautomer_probability>  (49) 
1

>  <r_epik_Ionization_Penalty>  (49) 
34.2581

>  <r_epik_Ionization_Penalty_Charging>  (49) 
34.2581

>  <r_epik_Ionization_Penalty_Neutral>  (49) 
3.99365e-08

>  <r_epik_State_Penalty>  (49) 
-0

>  <r_epik_Charging_Adjusted_Penalty>  (49) 
34.2581

>  <i_epik_Tot_Q>  (49) 
0

>  <i_epik_Tot_abs_Q>  (49) 
0

>  <s_lp_Force_Field>  (49) 
OPLS3e

>  <r_lp_Energy>  (49) 
30.2085

>  <b_lp_Chiralities_Consistent>  (49) 
1

>  <s_lp_Variant>  (49) 
17:0-2

>  <s_i_glide_gridfile>  (49) 
pfpi4k_grid

>  <i_i_glide_lignum>  (49) 
5

>  <i_i_glide_rotatable_bonds>  (49) 
2

>  <r_i_docking_score>  (49) 
-3.53658

>  <r_i_glide_ligand_efficiency>  (49) 
-0.208034

>  <r_i_glide_ligand_efficiency_sa>  (49) 
-0.534915

>  <r_i_glide_ligand_efficiency_ln>  (49) 
-0.922616

>  <r_i_glide_gscore>  (49) 
-3.53658

>  <r_i_glide_lipo>  (49) 
-0.256079

>  <r_i_glide_hbond>  (49) 
-0.0615866

>  <r_i_glide_metal>  (49) 
-0

>  <r_i_glide_rewards>  (49) 
-1.83263

>  <r_i_glide_evdw>  (49) 
-21.2437

>  <r_i_glide_ecoul>  (49) 
-3.9558

>  <r_i_glide_erotb>  (49) 
0.639842

>  <r_i_glide_esite>  (49) 
-0.370573

>  <r_i_glide_emodel>  (49) 
-31.1291

>  <r_i_glide_energy>  (49) 
-25.1995

>  <r_i_glide_einternal>  (49) 
0.198894

>  <r_i_glide_intrahb_reward>  (49) 
-0

>  <i_i_glide_confnum>  (49) 
2

>  <i_i_glide_posenum>  (49) 
37

>  <r_i_glide_eff_state_penalty>  (49) 
0

>  <ligand_id>  (49) 
17

>  <original_smiles>  (49) 
CCN=c1nc(-c2ccco2)[nH]c2nnnn12

>  <smiles>  (49) 
[H]c1oc(-c2nc(=NC([H])([H])C([H])([H])[H])n3c(nnn3[H])n2)c([H])c1[H]

$$$$
17:1:1
     RDKit          3D

 26 28  0  0  1  0  0  0  0  0999 V2000
    2.0336    2.3991    2.3674 C   0  0  0  0  0  0  0  0  0  0  0  0
    0.5621    1.9712    2.2980 C   0  0  0  0  0  0  0  0  0  0  0  0
    0.4211    0.5881    2.7461 N   0  0  0  0  0  0  0  0  0  0  0  0
   -0.1223    0.3415    3.8979 C   0  0  0  0  0  0  0  0  0  0  0  0
   -0.7103    1.3046    4.7466 N   0  0  0  0  0  0  0  0  0  0  0  0
   -1.1179    0.9493    5.9266 C   0  0  0  0  0  0  0  0  0  0  0  0
   -1.7097    1.9586    6.7899 C   0  0  0  0  0  0  0  0  0  0  0  0
   -2.0156    3.2787    6.5903 C   0  0  0  0  0  0  0  0  0  0  0  0
   -2.5826    3.7467    7.8087 C   0  0  0  0  0  0  0  0  0  0  0  0
   -2.5845    2.6854    8.6683 C   0  0  0  0  0  0  0  0  0  0  0  0
   -2.0558    1.5896    8.0600 O   0  0  0  0  0  0  0  0  0  0  0  0
   -0.9988   -0.3926    6.4744 N   0  0  0  0  0  0  0  0  0  0  0  0
   -0.4685   -1.2561    5.6699 C   0  0  0  0  0  0  0  0  0  0  0  0
   -0.0441   -2.6236    5.9166 N   0  0  0  0  0  0  0  0  0  0  0  0
    0.5123   -3.0576    4.8762 N   0  0  0  0  0  0  0  0  0  0  0  0
    0.5303   -2.0882    3.8946 N   0  0  0  0  0  0  0  0  0  0  0  0
   -0.1201   -0.9697    4.3900 N   0  0  0  0  0  0  0  0  0  0  0  0
    2.1483    3.4447    2.0793 H   0  0  0  0  0  0  0  0  0  0  0  0
    2.6490    1.8011    1.6968 H   0  0  0  0  0  0  0  0  0  0  0  0
    2.4340    2.2948    3.3750 H   0  0  0  0  0  0  0  0  0  0  0  0
   -0.0284    2.7048    2.8488 H   0  0  0  0  0  0  0  0  0  0  0  0
    0.2069    2.0507    1.2741 H   0  0  0  0  0  0  0  0  0  0  0  0
   -1.8466    3.8148    5.6672 H   0  0  0  0  0  0  0  0  0  0  0  0
   -2.9520    4.7361    8.0391 H   0  0  0  0  0  0  0  0  0  0  0  0
   -2.9068    2.5476    9.6918 H   0  0  0  0  0  0  0  0  0  0  0  0
    0.2582   -2.3979    2.9580 H   0  0  0  0  0  0  0  0  0  0  0  0
  1  2  1  0
  1 18  1  0
  1 19  1  0
  1 20  1  0
  2  3  1  0
  2 21  1  0
  2 22  1  0
  3  4  2  3
  4 17  1  0
  4  5  1  0
  5  6  2  0
  6  7  1  0
  6 12  1  0
  7 11  1  0
  7  8  2  0
  8  9  1  0
  8 23  1  0
  9 10  2  0
  9 24  1  0
 10 11  1  0
 10 25  1  0
 12 13  2  0
 13 17  1  0
 13 14  1  0
 14 15  2  0
 15 16  1  0
 16 17  1  0
 16 26  1  0
M  END
>  <i_m_ct_stereo_status>  (50) 
1

>  <s_m_source_file>  (50) 
/var/tmp/pbs.5083858.sched01/tmpz_rd3bwd/20sr47tjo2.sdf

>  <i_m_source_file_index>  (50) 
5

>  <i_lp_mmshare_version>  (50) 
48012

>  <i_f3d_flags>  (50) 
0

>  <s_epik_input>  (50) 
bjFubm4oYzEyKWMoPU5cW0NIMl1bQ0gzXSkvbmMoW25IXTIpLWMzW2NIXVtjSF1bY0hdbzM=

>  <s_epik_cmdline>  (50) 
J2VwaWtfcHl0aG9uJywgJy1waHQnLCAnMi4wJywgJy1waCcsICc3LjAnLCAnLXRuJywgJzgnLCAnLW1hJywgJzIwMCcsICctaW1hZScsICc8aW5maWxlLm1hZT4nLCAnLW9tYWUnLCAnPG91dGZpbGUubWFlPic=

>  <r_lp_tautomer_probability>  (50) 
1

>  <r_epik_Ionization_Penalty>  (50) 
34.2581

>  <r_epik_Ionization_Penalty_Charging>  (50) 
34.2581

>  <r_epik_Ionization_Penalty_Neutral>  (50) 
3.99365e-08

>  <r_epik_State_Penalty>  (50) 
-0

>  <r_epik_Charging_Adjusted_Penalty>  (50) 
34.2581

>  <i_epik_Tot_Q>  (50) 
0

>  <i_epik_Tot_abs_Q>  (50) 
0

>  <s_lp_Force_Field>  (50) 
OPLS3e

>  <r_lp_Energy>  (50) 
30.2085

>  <b_lp_Chiralities_Consistent>  (50) 
1

>  <s_lp_Variant>  (50) 
17:0-2

>  <s_i_glide_gridfile>  (50) 
pfpi4k_grid

>  <i_i_glide_lignum>  (50) 
5

>  <i_i_glide_rotatable_bonds>  (50) 
2

>  <r_i_docking_score>  (50) 
-3.33033

>  <r_i_glide_ligand_efficiency>  (50) 
-0.195902

>  <r_i_glide_ligand_efficiency_sa>  (50) 
-0.503719

>  <r_i_glide_ligand_efficiency_ln>  (50) 
-0.868809

>  <r_i_glide_gscore>  (50) 
-3.33033

>  <r_i_glide_lipo>  (50) 
-0.168204

>  <r_i_glide_hbond>  (50) 
-0.135897

>  <r_i_glide_metal>  (50) 
-0

>  <r_i_glide_rewards>  (50) 
-1.83263

>  <r_i_glide_evdw>  (50) 
-19.5896

>  <r_i_glide_ecoul>  (50) 
-4.89661

>  <r_i_glide_erotb>  (50) 
0.639842

>  <r_i_glide_esite>  (50) 
-0.119468

>  <r_i_glide_emodel>  (50) 
-29.9001

>  <r_i_glide_energy>  (50) 
-24.4862

>  <r_i_glide_einternal>  (50) 
0.508688

>  <r_i_glide_intrahb_reward>  (50) 
-0

>  <i_i_glide_confnum>  (50) 
6

>  <i_i_glide_posenum>  (50) 
15

>  <r_i_glide_eff_state_penalty>  (50) 
0

>  <ligand_id>  (50) 
17

>  <original_smiles>  (50) 
CCN=c1nc(-c2ccco2)[nH]c2nnnn12

>  <smiles>  (50) 
[H]c1oc(-c2nc(=NC([H])([H])C([H])([H])[H])n3c(nnn3[H])n2)c([H])c1[H]

$$$$
17:1:2
     RDKit          3D

 26 28  0  0  1  0  0  0  0  0999 V2000
    1.4324    5.3236    3.7629 C   0  0  0  0  0  0  0  0  0  0  0  0
   -0.0693    5.2401    4.0658 C   0  0  0  0  0  0  0  0  0  0  0  0
   -0.5520    3.8739    3.8609 N   0  0  0  0  0  0  0  0  0  0  0  0
   -1.1005    3.2158    4.8339 C   0  0  0  0  0  0  0  0  0  0  0  0
   -1.4077    3.7417    6.1088 N   0  0  0  0  0  0  0  0  0  0  0  0
   -1.8433    2.9449    7.0463 C   0  0  0  0  0  0  0  0  0  0  0  0
   -2.1361    3.5334    8.3413 C   0  0  0  0  0  0  0  0  0  0  0  0
   -2.0114    4.8033    8.8282 C   0  0  0  0  0  0  0  0  0  0  0  0
   -2.4587    4.7546   10.1766 C   0  0  0  0  0  0  0  0  0  0  0  0
   -2.8206    3.4606   10.4128 C   0  0  0  0  0  0  0  0  0  0  0  0
   -2.6279    2.7000    9.3041 O   0  0  0  0  0  0  0  0  0  0  0  0
   -2.0416    1.5196    6.9020 N   0  0  0  0  0  0  0  0  0  0  0  0
   -1.7660    1.0744    5.7124 C   0  0  0  0  0  0  0  0  0  0  0  0
   -1.6682   -0.2931    5.2458 N   0  0  0  0  0  0  0  0  0  0  0  0
   -1.2735   -0.2747    4.0609 N   0  0  0  0  0  0  0  0  0  0  0  0
   -1.0885    1.0219    3.6286 N   0  0  0  0  0  0  0  0  0  0  0  0
   -1.3995    1.8690    4.6724 N   0  0  0  0  0  0  0  0  0  0  0  0
    1.8097    6.3292    3.9556 H   0  0  0  0  0  0  0  0  0  0  0  0
    1.6413    5.0938    2.7182 H   0  0  0  0  0  0  0  0  0  0  0  0
    2.0020    4.6332    4.3845 H   0  0  0  0  0  0  0  0  0  0  0  0
   -0.2130    5.6422    5.0714 H   0  0  0  0  0  0  0  0  0  0  0  0
   -0.5933    5.9142    3.3899 H   0  0  0  0  0  0  0  0  0  0  0  0
   -1.6437    5.6568    8.2780 H   0  0  0  0  0  0  0  0  0  0  0  0
   -2.5173    5.5619   10.8907 H   0  0  0  0  0  0  0  0  0  0  0  0
   -3.2169    2.9423   11.2744 H   0  0  0  0  0  0  0  0  0  0  0  0
   -1.4437    1.2561    2.7056 H   0  0  0  0  0  0  0  0  0  0  0  0
  1  2  1  0
  1 18  1  0
  1 19  1  0
  1 20  1  0
  2  3  1  0
  2 21  1  0
  2 22  1  0
  3  4  2  3
  4 17  1  0
  4  5  1  0
  5  6  2  0
  6  7  1  0
  6 12  1  0
  7 11  1  0
  7  8  2  0
  8  9  1  0
  8 23  1  0
  9 10  2  0
  9 24  1  0
 10 11  1  0
 10 25  1  0
 12 13  2  0
 13 17  1  0
 13 14  1  0
 14 15  2  0
 15 16  1  0
 16 17  1  0
 16 26  1  0
M  END
>  <i_m_ct_stereo_status>  (51) 
1

>  <s_m_source_file>  (51) 
/var/tmp/pbs.5083858.sched01/tmpz_rd3bwd/20sr47tjo2.sdf

>  <i_m_source_file_index>  (51) 
5

>  <i_lp_mmshare_version>  (51) 
48012

>  <i_f3d_flags>  (51) 
0

>  <s_epik_input>  (51) 
bjFubm4oYzEyKWMoPU5cW0NIMl1bQ0gzXSkvbmMoW25IXTIpLWMzW2NIXVtjSF1bY0hdbzM=

>  <s_epik_cmdline>  (51) 
J2VwaWtfcHl0aG9uJywgJy1waHQnLCAnMi4wJywgJy1waCcsICc3LjAnLCAnLXRuJywgJzgnLCAnLW1hJywgJzIwMCcsICctaW1hZScsICc8aW5maWxlLm1hZT4nLCAnLW9tYWUnLCAnPG91dGZpbGUubWFlPic=

>  <r_lp_tautomer_probability>  (51) 
1

>  <r_epik_Ionization_Penalty>  (51) 
34.2581

>  <r_epik_Ionization_Penalty_Charging>  (51) 
34.2581

>  <r_epik_Ionization_Penalty_Neutral>  (51) 
3.99365e-08

>  <r_epik_State_Penalty>  (51) 
-0

>  <r_epik_Charging_Adjusted_Penalty>  (51) 
34.2581

>  <i_epik_Tot_Q>  (51) 
0

>  <i_epik_Tot_abs_Q>  (51) 
0

>  <s_lp_Force_Field>  (51) 
OPLS3e

>  <r_lp_Energy>  (51) 
30.2085

>  <b_lp_Chiralities_Consistent>  (51) 
1

>  <s_lp_Variant>  (51) 
17:0-2

>  <s_i_glide_gridfile>  (51) 
pfpi4k_grid

>  <i_i_glide_lignum>  (51) 
5

>  <i_i_glide_rotatable_bonds>  (51) 
2

>  <r_i_docking_score>  (51) 
-2.9565

>  <r_i_glide_ligand_efficiency>  (51) 
-0.173912

>  <r_i_glide_ligand_efficiency_sa>  (51) 
-0.447176

>  <r_i_glide_ligand_efficiency_ln>  (51) 
-0.771285

>  <r_i_glide_gscore>  (51) 
-2.9565

>  <r_i_glide_lipo>  (51) 
-0.0178892

>  <r_i_glide_hbond>  (51) 
-0.0199723

>  <r_i_glide_metal>  (51) 
-0

>  <r_i_glide_rewards>  (51) 
-1.89896

>  <r_i_glide_evdw>  (51) 
-21.7488

>  <r_i_glide_ecoul>  (51) 
-2.48081

>  <r_i_glide_erotb>  (51) 
0.639842

>  <r_i_glide_esite>  (51) 
-0.199962

>  <r_i_glide_emodel>  (51) 
-28.8853

>  <r_i_glide_energy>  (51) 
-24.2296

>  <r_i_glide_einternal>  (51) 
0.566414

>  <r_i_glide_intrahb_reward>  (51) 
-0

>  <i_i_glide_confnum>  (51) 
2

>  <i_i_glide_posenum>  (51) 
3

>  <r_i_glide_eff_state_penalty>  (51) 
0

>  <ligand_id>  (51) 
17

>  <original_smiles>  (51) 
CCN=c1nc(-c2ccco2)[nH]c2nnnn12

>  <smiles>  (51) 
[H]c1oc(-c2nc(=NC([H])([H])C([H])([H])[H])n3c(nnn3[H])n2)c([H])c1[H]

$$$$
18:0:0
     RDKit          3D

 44 48  0  0  1  0  0  0  0  0999 V2000
    5.6626   -4.0702   -0.4894 O   0  0  0  0  0  0  0  0  0  0  0  0
    5.6672   -2.6022   -0.5852 S   0  0  0  0  0  0  0  0  0  0  0  0
    6.9413   -1.8662   -0.6650 O   0  0  0  0  0  0  0  0  0  0  0  0
    4.6917   -2.0969   -1.9969 C   0  0  0  0  0  0  0  0  0  0  0  0
    4.5733   -0.7292   -2.3169 C   0  0  0  0  0  0  0  0  0  0  0  0
    3.8200   -0.3320   -3.4386 C   0  0  0  0  0  0  0  0  0  0  0  0
    3.2011   -1.3061   -4.2386 C   0  0  0  0  0  0  0  0  0  0  0  0
    3.3304   -2.6773   -3.9159 C   0  0  0  0  0  0  0  0  0  0  0  0
    4.0851   -3.0762   -2.8081 C   0  0  0  0  0  0  0  0  0  0  0  0
    4.8130   -1.9363    0.8290 C   0  0  0  0  0  0  0  0  0  0  0  0
    5.0097   -0.6260    1.3100 N   0  0  0  0  0  0  0  0  0  0  0  0
    4.2232   -0.4200    2.3355 N   0  0  0  0  0  0  0  0  0  0  0  0
    3.5334   -1.5664    2.4775 N   0  0  0  0  0  0  0  0  0  0  0  0
    3.8288   -2.5141    1.5976 C   0  0  0  0  0  0  0  0  0  0  0  0
    3.2781   -3.7473    1.4971 N   0  0  0  0  0  0  0  0  0  0  0  0
    2.3181   -4.0265    2.4479 C   0  0  0  0  0  0  0  0  0  0  0  0
    1.7464   -5.3230    2.3240 N   0  0  0  0  0  0  0  0  0  0  0  0
    1.9035   -6.1463    1.1287 C   0  0  0  0  0  0  0  0  0  0  0  0
    1.0467   -7.3869    1.3882 C   0  0  0  0  0  0  0  0  0  0  0  0
    1.0956   -7.5584    2.9056 C   0  0  0  0  0  0  0  0  0  0  0  0
    1.1850   -6.1256    3.4065 C   0  0  0  0  0  0  0  0  0  0  0  0
    1.9003   -3.0653    3.4578 C   0  0  0  0  0  0  0  0  0  0  0  0
    0.8715   -3.2764    4.4260 C   0  0  0  0  0  0  0  0  0  0  0  0
    0.5167   -2.3026    5.3684 C   0  0  0  0  0  0  0  0  0  0  0  0
    1.1810   -1.0783    5.3673 C   0  0  0  0  0  0  0  0  0  0  0  0
    2.1843   -0.8420    4.4096 C   0  0  0  0  0  0  0  0  0  0  0  0
    2.5663   -1.8011    3.4331 C   0  0  0  0  0  0  0  0  0  0  0  0
    5.0527    0.0184   -1.7073 H   0  0  0  0  0  0  0  0  0  0  0  0
    3.7050    0.7164   -3.6836 H   0  0  0  0  0  0  0  0  0  0  0  0
    2.6202   -0.9948   -5.0929 H   0  0  0  0  0  0  0  0  0  0  0  0
    2.8426   -3.4241   -4.5289 H   0  0  0  0  0  0  0  0  0  0  0  0
    4.2091   -4.1265   -2.5737 H   0  0  0  0  0  0  0  0  0  0  0  0
    1.5622   -5.6018    0.2517 H   0  0  0  0  0  0  0  0  0  0  0  0
    2.9475   -6.4202    0.9720 H   0  0  0  0  0  0  0  0  0  0  0  0
    0.0213   -7.2058    1.0580 H   0  0  0  0  0  0  0  0  0  0  0  0
    1.4159   -8.2697    0.8726 H   0  0  0  0  0  0  0  0  0  0  0  0
    0.2060   -8.0551    3.2993 H   0  0  0  0  0  0  0  0  0  0  0  0
    1.9751   -8.1263    3.2124 H   0  0  0  0  0  0  0  0  0  0  0  0
    1.7416   -6.0430    4.3445 H   0  0  0  0  0  0  0  0  0  0  0  0
    0.1472   -5.8339    3.5410 H   0  0  0  0  0  0  0  0  0  0  0  0
    0.2834   -4.1579    4.5141 H   0  0  0  0  0  0  0  0  0  0  0  0
   -0.2625   -2.5096    6.0787 H   0  0  0  0  0  0  0  0  0  0  0  0
    0.9204   -0.3213    6.0884 H   0  0  0  0  0  0  0  0  0  0  0  0
    2.6734    0.1258    4.4277 H   0  0  0  0  0  0  0  0  0  0  0  0
  1  2  2  0
  2  3  2  0
  2  4  1  0
  2 10  1  0
  4  9  1  0
  4  5  2  0
  5  6  1  0
  5 28  1  0
  6  7  2  0
  6 29  1  0
  7  8  1  0
  7 30  1  0
  8  9  2  0
  8 31  1  0
  9 32  1  0
 10 14  2  0
 10 11  1  0
 11 12  2  0
 12 13  1  0
 13 27  1  0
 13 14  1  0
 14 15  1  0
 15 16  2  0
 16 17  1  0
 16 22  1  0
 17 21  1  0
 17 18  1  0
 18 19  1  0
 18 33  1  0
 18 34  1  0
 19 20  1  0
 19 35  1  0
 19 36  1  0
 20 21  1  0
 20 37  1  0
 20 38  1  0
 21 39  1  0
 21 40  1  0
 22 27  2  0
 22 23  1  0
 23 24  2  0
 23 41  1  0
 24 25  1  0
 24 42  1  0
 25 26  2  0
 25 43  1  0
 26 27  1  0
 26 44  1  0
M  END
>  <i_m_ct_stereo_status>  (52) 
1

>  <s_m_source_file>  (52) 
/var/tmp/pbs.5083858.sched01/tmpza6kqm8b/25fbxx885r.sdf

>  <i_m_source_file_index>  (52) 
1

>  <i_lp_mmshare_version>  (52) 
48012

>  <i_f3d_flags>  (52) 
0

>  <s_epik_input>  (52) 
W2NIXTFbY0hdW2NIXVtjSF1bY0hdYzFTKD1PKSg9TyljKG5uMiljKG4yMyluYyhONFtDSDJdW0NIMl1bQ0gyXVtDSDJdNCljNWMzW2NIXVtjSF1bY0hdW2NIXTU=

>  <s_epik_cmdline>  (52) 
J2VwaWtfcHl0aG9uJywgJy1waHQnLCAnMi4wJywgJy1waCcsICc3LjAnLCAnLXRuJywgJzgnLCAnLW1hJywgJzIwMCcsICctaW1hZScsICc8aW5maWxlLm1hZT4nLCAnLW9tYWUnLCAnPG91dGZpbGUubWFlPic=

>  <r_epik_Ionization_Penalty>  (52) 
0.00116748

>  <r_epik_Ionization_Penalty_Charging>  (52) 
0

>  <r_epik_Ionization_Penalty_Neutral>  (52) 
0.00116748

>  <r_epik_State_Penalty>  (52) 
0.000769031

>  <r_epik_Charging_Adjusted_Penalty>  (52) 
0.000769031

>  <i_epik_Tot_Q>  (52) 
0

>  <i_epik_Tot_abs_Q>  (52) 
0

>  <s_lp_Force_Field>  (52) 
OPLS3e

>  <r_lp_Energy>  (52) 
31.9179

>  <b_lp_Chiralities_Consistent>  (52) 
1

>  <s_lp_Variant>  (52) 
18:0-1

>  <s_i_glide_gridfile>  (52) 
pfpi4k_grid

>  <i_i_glide_lignum>  (52) 
1

>  <i_i_glide_rotatable_bonds>  (52) 
3

>  <r_i_docking_score>  (52) 
-3.19901

>  <r_i_glide_ligand_efficiency>  (52) 
-0.118482

>  <r_i_glide_ligand_efficiency_sa>  (52) 
-0.355446

>  <r_i_glide_ligand_efficiency_ln>  (52) 
-0.744677

>  <r_i_glide_gscore>  (52) 
-3.19901

>  <r_i_glide_lipo>  (52) 
-0.374286

>  <r_i_glide_hbond>  (52) 
0

>  <r_i_glide_metal>  (52) 
-0

>  <r_i_glide_rewards>  (52) 
-0.822023

>  <r_i_glide_evdw>  (52) 
-31.3261

>  <r_i_glide_ecoul>  (52) 
-4.69579

>  <r_i_glide_erotb>  (52) 
0.404033

>  <r_i_glide_esite>  (52) 
-0.136063

>  <r_i_glide_emodel>  (52) 
-42.0663

>  <r_i_glide_energy>  (52) 
-36.0219

>  <r_i_glide_einternal>  (52) 
1.12604

>  <r_i_glide_intrahb_reward>  (52) 
-0

>  <i_i_glide_confnum>  (52) 
6

>  <i_i_glide_posenum>  (52) 
4

>  <r_i_glide_eff_state_penalty>  (52) 
0

>  <ligand_id>  (52) 
18

>  <original_smiles>  (52) 
O=S(=O)(c1ccccc1)c1nnn2c1nc(N1CCCC1)c1ccccc12

>  <smiles>  (52) 
[H]c1c([H])c([H])c(S(=O)(=O)c2nnn3c2nc(N2C([H])([H])C([H])([H])C([H])([H])C2([H])[H])c2c([H])c([H])c([H])c([H])c23)c([H])c1[H]

$$$$
18:0:1
     RDKit          3D

 44 48  0  0  1  0  0  0  0  0999 V2000
    0.2708   -5.5688    6.9854 O   0  0  0  0  0  0  0  0  0  0  0  0
    0.9516   -5.0181    5.8046 S   0  0  0  0  0  0  0  0  0  0  0  0
    2.4154   -4.8673    5.7891 O   0  0  0  0  0  0  0  0  0  0  0  0
    0.4552   -5.9912    4.3757 C   0  0  0  0  0  0  0  0  0  0  0  0
   -0.7347   -6.7513    4.3987 C   0  0  0  0  0  0  0  0  0  0  0  0
   -1.1175   -7.4863    3.2598 C   0  0  0  0  0  0  0  0  0  0  0  0
   -0.3125   -7.4558    2.1031 C   0  0  0  0  0  0  0  0  0  0  0  0
    0.8776   -6.6983    2.0884 C   0  0  0  0  0  0  0  0  0  0  0  0
    1.2633   -5.9640    3.2257 C   0  0  0  0  0  0  0  0  0  0  0  0
    0.2210   -3.4210    5.5454 C   0  0  0  0  0  0  0  0  0  0  0  0
   -1.0057   -3.0160    6.1098 N   0  0  0  0  0  0  0  0  0  0  0  0
   -1.3094   -1.8140    5.6812 N   0  0  0  0  0  0  0  0  0  0  0  0
   -0.2853   -1.4701    4.8836 N   0  0  0  0  0  0  0  0  0  0  0  0
    0.6490   -2.3904    4.7429 C   0  0  0  0  0  0  0  0  0  0  0  0
    1.7731   -2.3212    3.9778 N   0  0  0  0  0  0  0  0  0  0  0  0
    1.9328   -1.1232    3.3130 C   0  0  0  0  0  0  0  0  0  0  0  0
    3.1207   -1.0504    2.5411 N   0  0  0  0  0  0  0  0  0  0  0  0
    4.2410   -1.9686    2.7200 C   0  0  0  0  0  0  0  0  0  0  0  0
    5.3280   -1.4650    1.7652 C   0  0  0  0  0  0  0  0  0  0  0  0
    4.5412   -0.8198    0.6231 C   0  0  0  0  0  0  0  0  0  0  0  0
    3.3109   -0.2635    1.3267 C   0  0  0  0  0  0  0  0  0  0  0  0
    0.9901   -0.0204    3.4268 C   0  0  0  0  0  0  0  0  0  0  0  0
    1.1393    1.2569    2.8191 C   0  0  0  0  0  0  0  0  0  0  0  0
    0.1900    2.2721    2.9862 C   0  0  0  0  0  0  0  0  0  0  0  0
   -0.9439    2.0443    3.7599 C   0  0  0  0  0  0  0  0  0  0  0  0
   -1.1006    0.7964    4.3884 C   0  0  0  0  0  0  0  0  0  0  0  0
   -0.1552   -0.2499    4.2512 C   0  0  0  0  0  0  0  0  0  0  0  0
   -1.3611   -6.7783    5.2754 H   0  0  0  0  0  0  0  0  0  0  0  0
   -2.0251   -8.0772    3.2729 H   0  0  0  0  0  0  0  0  0  0  0  0
   -0.6000   -8.0270    1.2319 H   0  0  0  0  0  0  0  0  0  0  0  0
    1.5053   -6.6860    1.2090 H   0  0  0  0  0  0  0  0  0  0  0  0
    2.1778   -5.3861    3.2319 H   0  0  0  0  0  0  0  0  0  0  0  0
    4.5740   -1.9485    3.7554 H   0  0  0  0  0  0  0  0  0  0  0  0
    3.9495   -2.9890    2.4685 H   0  0  0  0  0  0  0  0  0  0  0  0
    5.9363   -0.7141    2.2764 H   0  0  0  0  0  0  0  0  0  0  0  0
    5.9894   -2.2593    1.4189 H   0  0  0  0  0  0  0  0  0  0  0  0
    5.0989   -0.0191    0.1365 H   0  0  0  0  0  0  0  0  0  0  0  0
    4.2569   -1.5565   -0.1305 H   0  0  0  0  0  0  0  0  0  0  0  0
    2.4318   -0.2485    0.6773 H   0  0  0  0  0  0  0  0  0  0  0  0
    3.5949    0.7487    1.6073 H   0  0  0  0  0  0  0  0  0  0  0  0
    1.9656    1.5542    2.2075 H   0  0  0  0  0  0  0  0  0  0  0  0
    0.3438    3.2233    2.5172 H   0  0  0  0  0  0  0  0  0  0  0  0
   -1.6813    2.8250    3.8803 H   0  0  0  0  0  0  0  0  0  0  0  0
   -1.9858    0.6599    5.0047 H   0  0  0  0  0  0  0  0  0  0  0  0
  1  2  2  0
  2  3  2  0
  2  4  1  0
  2 10  1  0
  4  9  1  0
  4  5  2  0
  5  6  1  0
  5 28  1  0
  6  7  2  0
  6 29  1  0
  7  8  1  0
  7 30  1  0
  8  9  2  0
  8 31  1  0
  9 32  1  0
 10 14  2  0
 10 11  1  0
 11 12  2  0
 12 13  1  0
 13 27  1  0
 13 14  1  0
 14 15  1  0
 15 16  2  0
 16 17  1  0
 16 22  1  0
 17 21  1  0
 17 18  1  0
 18 19  1  0
 18 33  1  0
 18 34  1  0
 19 20  1  0
 19 35  1  0
 19 36  1  0
 20 21  1  0
 20 37  1  0
 20 38  1  0
 21 39  1  0
 21 40  1  0
 22 27  2  0
 22 23  1  0
 23 24  2  0
 23 41  1  0
 24 25  1  0
 24 42  1  0
 25 26  2  0
 25 43  1  0
 26 27  1  0
 26 44  1  0
M  END
>  <i_m_ct_stereo_status>  (53) 
1

>  <s_m_source_file>  (53) 
/var/tmp/pbs.5083858.sched01/tmpza6kqm8b/25fbxx885r.sdf

>  <i_m_source_file_index>  (53) 
1

>  <i_lp_mmshare_version>  (53) 
48012

>  <i_f3d_flags>  (53) 
0

>  <s_epik_input>  (53) 
W2NIXTFbY0hdW2NIXVtjSF1bY0hdYzFTKD1PKSg9TyljKG5uMiljKG4yMyluYyhONFtDSDJdW0NIMl1bQ0gyXVtDSDJdNCljNWMzW2NIXVtjSF1bY0hdW2NIXTU=

>  <s_epik_cmdline>  (53) 
J2VwaWtfcHl0aG9uJywgJy1waHQnLCAnMi4wJywgJy1waCcsICc3LjAnLCAnLXRuJywgJzgnLCAnLW1hJywgJzIwMCcsICctaW1hZScsICc8aW5maWxlLm1hZT4nLCAnLW9tYWUnLCAnPG91dGZpbGUubWFlPic=

>  <r_epik_Ionization_Penalty>  (53) 
0.00116748

>  <r_epik_Ionization_Penalty_Charging>  (53) 
0

>  <r_epik_Ionization_Penalty_Neutral>  (53) 
0.00116748

>  <r_epik_State_Penalty>  (53) 
0.000769031

>  <r_epik_Charging_Adjusted_Penalty>  (53) 
0.000769031

>  <i_epik_Tot_Q>  (53) 
0

>  <i_epik_Tot_abs_Q>  (53) 
0

>  <s_lp_Force_Field>  (53) 
OPLS3e

>  <r_lp_Energy>  (53) 
31.9179

>  <b_lp_Chiralities_Consistent>  (53) 
1

>  <s_lp_Variant>  (53) 
18:0-1

>  <s_i_glide_gridfile>  (53) 
pfpi4k_grid

>  <i_i_glide_lignum>  (53) 
1

>  <i_i_glide_rotatable_bonds>  (53) 
3

>  <r_i_docking_score>  (53) 
-2.7113

>  <r_i_glide_ligand_efficiency>  (53) 
-0.100419

>  <r_i_glide_ligand_efficiency_sa>  (53) 
-0.301256

>  <r_i_glide_ligand_efficiency_ln>  (53) 
-0.631146

>  <r_i_glide_gscore>  (53) 
-2.7113

>  <r_i_glide_lipo>  (53) 
-0.198758

>  <r_i_glide_hbond>  (53) 
0

>  <r_i_glide_metal>  (53) 
-0

>  <r_i_glide_rewards>  (53) 
-0.850114

>  <r_i_glide_evdw>  (53) 
-29.4649

>  <r_i_glide_ecoul>  (53) 
-3.24535

>  <r_i_glide_erotb>  (53) 
0.404033

>  <r_i_glide_esite>  (53) 
-0.106414

>  <r_i_glide_emodel>  (53) 
-37.4372

>  <r_i_glide_energy>  (53) 
-32.7103

>  <r_i_glide_einternal>  (53) 
0.752761

>  <r_i_glide_intrahb_reward>  (53) 
-0

>  <i_i_glide_confnum>  (53) 
5

>  <i_i_glide_posenum>  (53) 
2

>  <r_i_glide_eff_state_penalty>  (53) 
0

>  <ligand_id>  (53) 
18

>  <original_smiles>  (53) 
O=S(=O)(c1ccccc1)c1nnn2c1nc(N1CCCC1)c1ccccc12

>  <smiles>  (53) 
[H]c1c([H])c([H])c(S(=O)(=O)c2nnn3c2nc(N2C([H])([H])C([H])([H])C([H])([H])C2([H])[H])c2c([H])c([H])c([H])c([H])c23)c([H])c1[H]

$$$$
18:0:2
     RDKit          3D

 44 48  0  0  1  0  0  0  0  0999 V2000
    1.5583   -5.8947    6.3319 O   0  0  0  0  0  0  0  0  0  0  0  0
    1.7208   -5.5836    4.9045 S   0  0  0  0  0  0  0  0  0  0  0  0
    3.0487   -5.6771    4.2716 O   0  0  0  0  0  0  0  0  0  0  0  0
    0.5692   -6.6047    3.9686 C   0  0  0  0  0  0  0  0  0  0  0  0
   -0.4635   -7.3135    4.6227 C   0  0  0  0  0  0  0  0  0  0  0  0
   -1.3595   -8.0979    3.8684 C   0  0  0  0  0  0  0  0  0  0  0  0
   -1.2257   -8.1644    2.4672 C   0  0  0  0  0  0  0  0  0  0  0  0
   -0.1933   -7.4519    1.8206 C   0  0  0  0  0  0  0  0  0  0  0  0
    0.7066   -6.6686    2.5698 C   0  0  0  0  0  0  0  0  0  0  0  0
    1.0940   -3.9319    4.7064 C   0  0  0  0  0  0  0  0  0  0  0  0
   -0.0292   -3.4239    5.4014 N   0  0  0  0  0  0  0  0  0  0  0  0
   -0.2560   -2.1923    5.0288 N   0  0  0  0  0  0  0  0  0  0  0  0
    0.6951   -1.9470    4.1030 N   0  0  0  0  0  0  0  0  0  0  0  0
    1.5146   -2.9366    3.8601 C   0  0  0  0  0  0  0  0  0  0  0  0
    2.5537   -2.9665    2.9703 N   0  0  0  0  0  0  0  0  0  0  0  0
    2.7426   -1.7839    2.2871 C   0  0  0  0  0  0  0  0  0  0  0  0
    3.8548   -1.8084    1.3966 N   0  0  0  0  0  0  0  0  0  0  0  0
    3.9757   -1.0834    0.1331 C   0  0  0  0  0  0  0  0  0  0  0  0
    5.1049   -1.7384   -0.6511 C   0  0  0  0  0  0  0  0  0  0  0  0
    5.9445   -2.4068    0.4403 C   0  0  0  0  0  0  0  0  0  0  0  0
    4.9121   -2.8091    1.4965 C   0  0  0  0  0  0  0  0  0  0  0  0
    1.9174   -0.6108    2.4930 C   0  0  0  0  0  0  0  0  0  0  0  0
    2.1096    0.6499    1.8575 C   0  0  0  0  0  0  0  0  0  0  0  0
    1.2698    1.7395    2.0995 C   0  0  0  0  0  0  0  0  0  0  0  0
    0.2175    1.6164    2.9977 C   0  0  0  0  0  0  0  0  0  0  0  0
    0.0271    0.3868    3.6631 C   0  0  0  0  0  0  0  0  0  0  0  0
    0.8526   -0.7392    3.4453 C   0  0  0  0  0  0  0  0  0  0  0  0
   -0.5603   -7.2835    5.6986 H   0  0  0  0  0  0  0  0  0  0  0  0
   -2.1413   -8.6634    4.3605 H   0  0  0  0  0  0  0  0  0  0  0  0
   -1.9051   -8.7736    1.8857 H   0  0  0  0  0  0  0  0  0  0  0  0
   -0.0853   -7.5172    0.7467 H   0  0  0  0  0  0  0  0  0  0  0  0
    1.5152   -6.1328    2.0897 H   0  0  0  0  0  0  0  0  0  0  0  0
    3.0421   -1.0365   -0.4339 H   0  0  0  0  0  0  0  0  0  0  0  0
    4.3572   -0.0848    0.3346 H   0  0  0  0  0  0  0  0  0  0  0  0
    4.7122   -2.4746   -1.3540 H   0  0  0  0  0  0  0  0  0  0  0  0
    5.6694   -0.9902   -1.2090 H   0  0  0  0  0  0  0  0  0  0  0  0
    6.5178   -3.2548    0.0651 H   0  0  0  0  0  0  0  0  0  0  0  0
    6.6414   -1.6880    0.8788 H   0  0  0  0  0  0  0  0  0  0  0  0
    5.3354   -2.7935    2.4984 H   0  0  0  0  0  0  0  0  0  0  0  0
    4.5265   -3.8105    1.2977 H   0  0  0  0  0  0  0  0  0  0  0  0
    2.8890    0.8709    1.1597 H   0  0  0  0  0  0  0  0  0  0  0  0
    1.4374    2.6724    1.5984 H   0  0  0  0  0  0  0  0  0  0  0  0
   -0.4353    2.4580    3.1849 H   0  0  0  0  0  0  0  0  0  0  0  0
   -0.7943    0.3286    4.3716 H   0  0  0  0  0  0  0  0  0  0  0  0
  1  2  2  0
  2  3  2  0
  2  4  1  0
  2 10  1  0
  4  9  1  0
  4  5  2  0
  5  6  1  0
  5 28  1  0
  6  7  2  0
  6 29  1  0
  7  8  1  0
  7 30  1  0
  8  9  2  0
  8 31  1  0
  9 32  1  0
 10 14  2  0
 10 11  1  0
 11 12  2  0
 12 13  1  0
 13 27  1  0
 13 14  1  0
 14 15  1  0
 15 16  2  0
 16 17  1  0
 16 22  1  0
 17 21  1  0
 17 18  1  0
 18 19  1  0
 18 33  1  0
 18 34  1  0
 19 20  1  0
 19 35  1  0
 19 36  1  0
 20 21  1  0
 20 37  1  0
 20 38  1  0
 21 39  1  0
 21 40  1  0
 22 27  2  0
 22 23  1  0
 23 24  2  0
 23 41  1  0
 24 25  1  0
 24 42  1  0
 25 26  2  0
 25 43  1  0
 26 27  1  0
 26 44  1  0
M  END
>  <i_m_ct_stereo_status>  (54) 
1

>  <s_m_source_file>  (54) 
/var/tmp/pbs.5083858.sched01/tmpza6kqm8b/25fbxx885r.sdf

>  <i_m_source_file_index>  (54) 
1

>  <i_lp_mmshare_version>  (54) 
48012

>  <i_f3d_flags>  (54) 
0

>  <s_epik_input>  (54) 
W2NIXTFbY0hdW2NIXVtjSF1bY0hdYzFTKD1PKSg9TyljKG5uMiljKG4yMyluYyhONFtDSDJdW0NIMl1bQ0gyXVtDSDJdNCljNWMzW2NIXVtjSF1bY0hdW2NIXTU=

>  <s_epik_cmdline>  (54) 
J2VwaWtfcHl0aG9uJywgJy1waHQnLCAnMi4wJywgJy1waCcsICc3LjAnLCAnLXRuJywgJzgnLCAnLW1hJywgJzIwMCcsICctaW1hZScsICc8aW5maWxlLm1hZT4nLCAnLW9tYWUnLCAnPG91dGZpbGUubWFlPic=

>  <r_epik_Ionization_Penalty>  (54) 
0.00116748

>  <r_epik_Ionization_Penalty_Charging>  (54) 
0

>  <r_epik_Ionization_Penalty_Neutral>  (54) 
0.00116748

>  <r_epik_State_Penalty>  (54) 
0.000769031

>  <r_epik_Charging_Adjusted_Penalty>  (54) 
0.000769031

>  <i_epik_Tot_Q>  (54) 
0

>  <i_epik_Tot_abs_Q>  (54) 
0

>  <s_lp_Force_Field>  (54) 
OPLS3e

>  <r_lp_Energy>  (54) 
31.9179

>  <b_lp_Chiralities_Consistent>  (54) 
1

>  <s_lp_Variant>  (54) 
18:0-1

>  <s_i_glide_gridfile>  (54) 
pfpi4k_grid

>  <i_i_glide_lignum>  (54) 
1

>  <i_i_glide_rotatable_bonds>  (54) 
3

>  <r_i_docking_score>  (54) 
-2.4326

>  <r_i_glide_ligand_efficiency>  (54) 
-0.0900961

>  <r_i_glide_ligand_efficiency_sa>  (54) 
-0.270288

>  <r_i_glide_ligand_efficiency_ln>  (54) 
-0.566268

>  <r_i_glide_gscore>  (54) 
-2.4326

>  <r_i_glide_lipo>  (54) 
-0.100247

>  <r_i_glide_hbond>  (54) 
0

>  <r_i_glide_metal>  (54) 
-0

>  <r_i_glide_rewards>  (54) 
-0.876776

>  <r_i_glide_evdw>  (54) 
-31.2996

>  <r_i_glide_ecoul>  (54) 
-1.78872

>  <r_i_glide_erotb>  (54) 
0.404033

>  <r_i_glide_esite>  (54) 
-0.0263182

>  <r_i_glide_emodel>  (54) 
-37.8097

>  <r_i_glide_energy>  (54) 
-33.0883

>  <r_i_glide_einternal>  (54) 
0.170628

>  <r_i_glide_intrahb_reward>  (54) 
-0

>  <i_i_glide_confnum>  (54) 
1

>  <i_i_glide_posenum>  (54) 
17

>  <r_i_glide_eff_state_penalty>  (54) 
0

>  <ligand_id>  (54) 
18

>  <original_smiles>  (54) 
O=S(=O)(c1ccccc1)c1nnn2c1nc(N1CCCC1)c1ccccc12

>  <smiles>  (54) 
[H]c1c([H])c([H])c(S(=O)(=O)c2nnn3c2nc(N2C([H])([H])C([H])([H])C([H])([H])C2([H])[H])c2c([H])c([H])c([H])c([H])c23)c([H])c1[H]

$$$$
19:0:0
     RDKit          3D

 75 79  0  0  1  0  0  0  0  0999 V2000
   -0.2082   -8.7408    2.7430 C   0  0  0  0  0  0  0  0  0  0  0  0
    0.1166   -7.3955    3.4071 C   0  0  2  0  0  0  0  0  0  0  0  0
   -1.1154   -6.7492    3.6410 O   0  0  0  0  0  0  0  0  0  0  0  0
    1.0790   -6.4668    2.6084 C   0  0  1  0  0  0  0  0  0  0  0  0
    2.4609   -7.0998    2.3707 C   0  0  0  0  0  0  0  0  0  0  0  0
    0.5430   -6.2770    1.3099 O   0  0  0  0  0  0  0  0  0  0  0  0
    1.2457   -5.0448    3.2108 C   0  0  0  0  0  0  0  0  0  0  0  0
    1.4987   -4.8494    4.7380 C   0  0  2  0  0  0  0  0  0  0  0  0
    0.2783   -4.9817    5.4439 O   0  0  0  0  0  0  0  0  0  0  0  0
    2.1677   -3.4861    5.1830 C   0  0  0  0  0  0  0  0  0  0  0  0
    2.3426   -3.5772    6.7242 C   0  0  0  0  0  0  0  0  0  0  0  0
    3.5937   -3.4455    4.5859 C   0  0  0  0  0  0  0  0  0  0  0  0
    1.2871   -2.2080    4.7928 C   0  0  2  0  0  0  0  0  0  0  0  0
    1.0593   -1.9922    3.2790 C   0  0  0  0  0  0  0  0  0  0  0  0
    1.1438   -0.5041    2.9879 C   0  0  1  0  0  0  0  0  0  0  0  0
    0.3120   -0.1109    1.9195 O   0  0  0  0  0  0  0  0  0  0  0  0
    0.7819    0.1534    4.3241 C   0  0  1  0  0  0  0  0  0  0  0  0
   -0.6307    0.0382    4.4656 O   0  0  0  0  0  0  0  0  0  0  0  0
    1.5240   -0.7495    5.3771 C   0  0  1  0  0  0  0  0  0  0  0  0
    0.9005   -0.6284    6.8038 C   0  0  0  0  0  0  0  0  0  0  0  0
    3.0338   -0.3404    5.4504 C   0  0  0  0  0  0  0  0  0  0  0  0
    3.2940    1.1775    5.6175 C   0  0  1  0  0  0  0  0  0  0  0  0
    4.6840    1.4342    5.6627 O   0  0  0  0  0  0  0  0  0  0  0  0
    2.6311    1.9501    4.4448 C   0  0  2  0  0  0  0  0  0  0  0  0
    3.3725    1.5568    3.2843 O   0  0  0  0  0  0  0  0  0  0  0  0
    2.3704    3.4634    4.5329 C   0  0  2  0  0  0  0  0  0  0  0  0
    1.2277    3.5188    5.6228 C   0  0  1  0  0  0  0  0  0  0  0  0
    0.0834    4.2222    5.1495 O   0  0  0  0  0  0  0  0  0  0  0  0
   -0.5921    3.5041    4.1142 C   0  0  1  0  0  0  0  0  0  0  0  0
   -1.3453    4.3281    3.2787 O   0  0  0  0  0  0  0  0  0  0  0  0
    0.5133    2.7144    3.3389 C   0  0  1  0  0  0  0  0  0  0  0  0
    1.6900    3.7167    3.1583 C   0  0  1  0  0  0  0  0  0  0  0  0
    1.4093    5.0702    2.8795 O   0  0  0  0  0  0  0  0  0  0  0  0
    1.1263    1.6708    4.3891 C   0  0  1  0  0  0  0  0  0  0  0  0
    0.8320    2.1870    5.6927 O   0  0  0  0  0  0  0  0  0  0  0  0
    0.6880   -9.3357    2.5958 H   0  0  0  0  0  0  0  0  0  0  0  0
   -0.6975   -8.6061    1.7723 H   0  0  0  0  0  0  0  0  0  0  0  0
   -0.8843   -9.3207    3.3714 H   0  0  0  0  0  0  0  0  0  0  0  0
    0.5726   -7.5977    4.3742 H   0  0  0  0  0  0  0  0  0  0  0  0
   -1.6653   -7.3421    4.1419 H   0  0  0  0  0  0  0  0  0  0  0  0
    2.9890   -7.2404    3.3172 H   0  0  0  0  0  0  0  0  0  0  0  0
    3.0719   -6.4477    1.7423 H   0  0  0  0  0  0  0  0  0  0  0  0
    2.3985   -8.0614    1.8535 H   0  0  0  0  0  0  0  0  0  0  0  0
    0.4271   -7.1344    0.9105 H   0  0  0  0  0  0  0  0  0  0  0  0
    2.0736   -4.6112    2.6510 H   0  0  0  0  0  0  0  0  0  0  0  0
    0.3553   -4.4921    2.9406 H   0  0  0  0  0  0  0  0  0  0  0  0
    2.1404   -5.6655    5.0803 H   0  0  0  0  0  0  0  0  0  0  0  0
   -0.1202   -5.8123    5.2185 H   0  0  0  0  0  0  0  0  0  0  0  0
    3.0012   -2.8051    7.1154 H   0  0  0  0  0  0  0  0  0  0  0  0
    2.7862   -4.5332    7.0134 H   0  0  0  0  0  0  0  0  0  0  0  0
    1.3912   -3.4997    7.2465 H   0  0  0  0  0  0  0  0  0  0  0  0
    4.2310   -2.7269    5.0922 H   0  0  0  0  0  0  0  0  0  0  0  0
    3.6166   -3.2079    3.5269 H   0  0  0  0  0  0  0  0  0  0  0  0
    4.0712   -4.4181    4.7088 H   0  0  0  0  0  0  0  0  0  0  0  0
    0.2975   -2.4585    5.1674 H   0  0  0  0  0  0  0  0  0  0  0  0
    1.7761   -2.4766    2.6295 H   0  0  0  0  0  0  0  0  0  0  0  0
    0.0620   -2.3568    3.0492 H   0  0  0  0  0  0  0  0  0  0  0  0
    2.1698   -0.3307    2.6888 H   0  0  0  0  0  0  0  0  0  0  0  0
    0.6348   -0.4755    1.0957 H   0  0  0  0  0  0  0  0  0  0  0  0
   -1.0196    0.5491    3.7630 H   0  0  0  0  0  0  0  0  0  0  0  0
    0.9200    0.3888    7.1918 H   0  0  0  0  0  0  0  0  0  0  0  0
    1.4388   -1.2227    7.5390 H   0  0  0  0  0  0  0  0  0  0  0  0
   -0.1390   -0.9539    6.8229 H   0  0  0  0  0  0  0  0  0  0  0  0
    3.5206   -0.8588    6.2715 H   0  0  0  0  0  0  0  0  0  0  0  0
    3.5357   -0.6746    4.5390 H   0  0  0  0  0  0  0  0  0  0  0  0
    2.9054    1.4940    6.5865 H   0  0  0  0  0  0  0  0  0  0  0  0
    5.0437    0.9922    6.4237 H   0  0  0  0  0  0  0  0  0  0  0  0
    4.1295    2.1367    3.1715 H   0  0  0  0  0  0  0  0  0  0  0  0
    3.2278    4.1002    4.7546 H   0  0  0  0  0  0  0  0  0  0  0  0
    1.5552    3.8622    6.6013 H   0  0  0  0  0  0  0  0  0  0  0  0
   -1.2950    2.8081    4.5852 H   0  0  0  0  0  0  0  0  0  0  0  0
   -0.8038    4.5632    2.5439 H   0  0  0  0  0  0  0  0  0  0  0  0
    0.1420    2.2954    2.4034 H   0  0  0  0  0  0  0  0  0  0  0  0
    2.3037    3.4227    2.3077 H   0  0  0  0  0  0  0  0  0  0  0  0
    1.0163    5.0704    1.9962 H   0  0  0  0  0  0  0  0  0  0  0  0
  1  2  1  0
  1 36  1  0
  1 37  1  0
  1 38  1  0
  2  3  1  0
  2  4  1  0
  2 39  1  1
  3 40  1  0
  4  5  1  0
  4  6  1  6
  4  7  1  0
  5 41  1  0
  5 42  1  0
  5 43  1  0
  6 44  1  0
  7  8  1  0
  7 45  1  0
  7 46  1  0
  8  9  1  0
  8 10  1  0
  8 47  1  1
  9 48  1  0
 10 11  1  0
 10 12  1  0
 10 13  1  0
 11 49  1  0
 11 50  1  0
 11 51  1  0
 12 52  1  0
 12 53  1  0
 12 54  1  0
 13 19  1  0
 13 14  1  0
 13 55  1  1
 14 15  1  0
 14 56  1  0
 14 57  1  0
 15 16  1  0
 15 17  1  0
 15 58  1  6
 16 59  1  0
 17 34  1  0
 17 18  1  1
 17 19  1  0
 18 60  1  0
 19 20  1  1
 19 21  1  0
 20 61  1  0
 20 62  1  0
 20 63  1  0
 21 22  1  0
 21 64  1  0
 21 65  1  0
 22 23  1  0
 22 24  1  0
 22 66  1  1
 23 67  1  0
 24 34  1  0
 24 25  1  6
 24 26  1  0
 25 68  1  0
 26 32  1  0
 26 27  1  0
 26 69  1  1
 27 35  1  0
 27 28  1  0
 27 70  1  1
 28 29  1  0
 29 30  1  0
 29 31  1  0
 29 71  1  1
 30 72  1  0
 31 32  1  0
 31 34  1  0
 31 73  1  6
 32 33  1  0
 32 74  1  6
 33 75  1  0
 34 35  1  1
M  END
>  <i_m_ct_stereo_status>  (55) 
1

>  <s_m_source_file>  (55) 
/var/tmp/pbs.5083858.sched01/tmpza6kqm8b/25fbxx885r.sdf

>  <i_m_source_file_index>  (55) 
2

>  <i_lp_mmshare_version>  (55) 
48012

>  <i_f3d_flags>  (55) 
0

>  <s_epik_input>  (55) 
W0NIM11bQ0BIXShbT0hdKVtDQEBdKFtDSDNdKShbT0hdKVtDSDJdW0NASF0oW09IXSlDKFtDSDNdKShbQ0gzXSlbQ0BIXShbQ0gyXVtDQEhdMVtPSF0pW0NAXShbQ0gzXSkoW0NAXTEoW0NAQF0yMzQpW09IXSlbQ0gyXVtDQEBIXShbT0hdKVtDQF0yKFtPSF0pW0NAQEhdNVtDQEhdKE80KU9bQ0BASF0oW09IXSlbQ0BIXTNbQ0BIXTVbT0hd

>  <s_epik_cmdline>  (55) 
J2VwaWtfcHl0aG9uJywgJy1waHQnLCAnMi4wJywgJy1waCcsICc3LjAnLCAnLXRuJywgJzgnLCAnLW1hJywgJzIwMCcsICctaW1hZScsICc8aW5maWxlLm1hZT4nLCAnLW9tYWUnLCAnPG91dGZpbGUubWFlPic=

>  <r_lp_tautomer_probability>  (55) 
1

>  <r_epik_Ionization_Penalty>  (55) 
3.21246e-06

>  <r_epik_Ionization_Penalty_Charging>  (55) 
0

>  <r_epik_Ionization_Penalty_Neutral>  (55) 
3.21246e-06

>  <r_epik_State_Penalty>  (55) 
-0

>  <r_epik_Charging_Adjusted_Penalty>  (55) 
0

>  <i_epik_Tot_Q>  (55) 
0

>  <i_epik_Tot_abs_Q>  (55) 
0

>  <s_epik_Chemistry_Notes>  (55) 
This compound contains an acetal/aminal-like group ( X-CH(R)-Y where X, Y are N, S, or O) that may be acid/base labile, releasing an aldehyde.

>  <s_lp_Force_Field>  (55) 
OPLS3e

>  <r_lp_Energy>  (55) 
94.4913

>  <b_lp_Chiralities_Consistent>  (55) 
1

>  <s_lp_Variant>  (55) 
19:0-1

>  <s_i_glide_gridfile>  (55) 
pfpi4k_grid

>  <i_i_glide_lignum>  (55) 
2

>  <i_i_glide_rotatable_bonds>  (55) 
14

>  <r_i_docking_score>  (55) 
-3.57842

>  <r_i_glide_ligand_efficiency>  (55) 
-0.10224

>  <r_i_glide_ligand_efficiency_sa>  (55) 
-0.334435

>  <r_i_glide_ligand_efficiency_ln>  (55) 
-0.785542

>  <r_i_glide_gscore>  (55) 
-3.57842

>  <r_i_glide_lipo>  (55) 
-0.0241402

>  <r_i_glide_hbond>  (55) 
0

>  <r_i_glide_metal>  (55) 
-0

>  <r_i_glide_rewards>  (55) 
0

>  <r_i_glide_evdw>  (55) 
-14.9766

>  <r_i_glide_ecoul>  (55) 
-21.0149

>  <r_i_glide_erotb>  (55) 
0.40158

>  <r_i_glide_esite>  (55) 
-0.0547863

>  <r_i_glide_emodel>  (55) 
-41.5597

>  <r_i_glide_energy>  (55) 
-35.9916

>  <r_i_glide_einternal>  (55) 
10.4515

>  <r_i_glide_intrahb_reward>  (55) 
-0

>  <i_i_glide_confnum>  (55) 
1

>  <i_i_glide_posenum>  (55) 
8

>  <r_i_glide_eff_state_penalty>  (55) 
0

>  <ligand_id>  (55) 
19

>  <original_smiles>  (55) 
CC(O)C(C)(O)CC(O)C(C)(C)C1CC(O)C2(O)C1(C)CC(O)C1(O)C3C4OC(O)C(C3O)C12O4

>  <smiles>  (55) 
[H]OC1([H])OC2([H])OC34C1([H])C([H])(O[H])C2([H])C3(O[H])C([H])(O[H])C([H])([H])C1(C([H])([H])[H])C([H])(C(C([H])([H])[H])(C([H])([H])[H])C([H])(O[H])C([H])([H])C(O[H])(C([H])([H])[H])C([H])(O[H])C([H])([H])[H])C([H])([H])C([H])(O[H])C41O[H]

$$$$
19:0:1
     RDKit          3D

 75 79  0  0  1  0  0  0  0  0999 V2000
    0.1764   -8.7699    2.7204 C   0  0  0  0  0  0  0  0  0  0  0  0
    0.3140   -7.3963    3.3780 C   0  0  2  0  0  0  0  0  0  0  0  0
   -0.9739   -6.8063    3.3418 O   0  0  0  0  0  0  0  0  0  0  0  0
    1.3629   -6.4438    2.7371 C   0  0  1  0  0  0  0  0  0  0  0  0
    2.7831   -7.0360    2.7192 C   0  0  0  0  0  0  0  0  0  0  0  0
    1.0229   -6.2594    1.3737 O   0  0  0  0  0  0  0  0  0  0  0  0
    1.3971   -5.0248    3.3731 C   0  0  0  0  0  0  0  0  0  0  0  0
    1.3950   -4.8367    4.9239 C   0  0  2  0  0  0  0  0  0  0  0  0
    0.0982   -5.0804    5.4348 O   0  0  0  0  0  0  0  0  0  0  0  0
    1.8488   -3.4302    5.4837 C   0  0  0  0  0  0  0  0  0  0  0  0
    1.7104   -3.5369    7.0291 C   0  0  0  0  0  0  0  0  0  0  0  0
    3.3643   -3.2801    5.2083 C   0  0  0  0  0  0  0  0  0  0  0  0
    0.9739   -2.2185    4.8994 C   0  0  2  0  0  0  0  0  0  0  0  0
    1.1096   -1.9552    3.3816 C   0  0  0  0  0  0  0  0  0  0  0  0
    1.1424   -0.4581    3.1666 C   0  0  1  0  0  0  0  0  0  0  0  0
    0.5731   -0.0978    1.9280 O   0  0  0  0  0  0  0  0  0  0  0  0
    0.3805    0.0984    4.3711 C   0  0  1  0  0  0  0  0  0  0  0  0
   -0.9994   -0.1512    4.1440 O   0  0  0  0  0  0  0  0  0  0  0  0
    0.9031   -0.7786    5.5601 C   0  0  1  0  0  0  0  0  0  0  0  0
   -0.0793   -0.7846    6.7711 C   0  0  0  0  0  0  0  0  0  0  0  0
    2.2871   -0.2337    6.0395 C   0  0  0  0  0  0  0  0  0  0  0  0
    2.3344    1.2912    6.3059 C   0  0  1  0  0  0  0  0  0  0  0  0
    3.6281    1.6727    6.7213 O   0  0  0  0  0  0  0  0  0  0  0  0
    1.9232    2.0636    5.0287 C   0  0  2  0  0  0  0  0  0  0  0  0
    2.9835    1.8568    4.0970 O   0  0  0  0  0  0  0  0  0  0  0  0
    1.4834    3.5368    5.0790 C   0  0  2  0  0  0  0  0  0  0  0  0
    0.0971    3.4200    5.8197 C   0  0  1  0  0  0  0  0  0  0  0  0
   -0.9466    4.0415    5.0720 O   0  0  0  0  0  0  0  0  0  0  0  0
   -1.2373    3.3017    3.8833 C   0  0  1  0  0  0  0  0  0  0  0  0
   -1.8058    4.0865    2.8848 O   0  0  0  0  0  0  0  0  0  0  0  0
    0.1020    2.6649    3.4129 C   0  0  1  0  0  0  0  0  0  0  0  0
    1.1687    3.7879    3.5856 C   0  0  1  0  0  0  0  0  0  0  0  0
    0.8066    5.1252    3.2725 O   0  0  0  0  0  0  0  0  0  0  0  0
    0.5335    1.6388    4.5637 C   0  0  1  0  0  0  0  0  0  0  0  0
   -0.1547    2.0564    5.7547 O   0  0  0  0  0  0  0  0  0  0  0  0
    1.1090   -9.3302    2.7560 H   0  0  0  0  0  0  0  0  0  0  0  0
   -0.1339   -8.6723    1.6793 H   0  0  0  0  0  0  0  0  0  0  0  0
   -0.5787   -9.3655    3.2303 H   0  0  0  0  0  0  0  0  0  0  0  0
    0.5883   -7.5664    4.4178 H   0  0  0  0  0  0  0  0  0  0  0  0
   -1.5793   -7.4065    3.7584 H   0  0  0  0  0  0  0  0  0  0  0  0
    3.1624   -7.1809    3.7320 H   0  0  0  0  0  0  0  0  0  0  0  0
    3.4683   -6.3627    2.2004 H   0  0  0  0  0  0  0  0  0  0  0  0
    2.8300   -7.9888    2.1891 H   0  0  0  0  0  0  0  0  0  0  0  0
    1.0194   -7.1170    0.9594 H   0  0  0  0  0  0  0  0  0  0  0  0
    2.2863   -4.5473    2.9631 H   0  0  0  0  0  0  0  0  0  0  0  0
    0.5485   -4.4843    2.9563 H   0  0  0  0  0  0  0  0  0  0  0  0
    2.0470   -5.5977    5.3577 H   0  0  0  0  0  0  0  0  0  0  0  0
   -0.1819   -5.9448    5.1729 H   0  0  0  0  0  0  0  0  0  0  0  0
    2.2010   -2.7273    7.5648 H   0  0  0  0  0  0  0  0  0  0  0  0
    2.1594   -4.4605    7.4039 H   0  0  0  0  0  0  0  0  0  0  0  0
    0.6676   -3.5538    7.3483 H   0  0  0  0  0  0  0  0  0  0  0  0
    3.8134   -2.5013    5.8203 H   0  0  0  0  0  0  0  0  0  0  0  0
    3.6119   -3.0652    4.1715 H   0  0  0  0  0  0  0  0  0  0  0  0
    3.8756   -4.2084    5.4643 H   0  0  0  0  0  0  0  0  0  0  0  0
   -0.0461   -2.5881    4.9980 H   0  0  0  0  0  0  0  0  0  0  0  0
    1.9918   -2.3702    2.9119 H   0  0  0  0  0  0  0  0  0  0  0  0
    0.2239   -2.3536    2.8804 H   0  0  0  0  0  0  0  0  0  0  0  0
    2.1919   -0.1663    3.1488 H   0  0  0  0  0  0  0  0  0  0  0  0
    0.9850   -0.5588    1.1986 H   0  0  0  0  0  0  0  0  0  0  0  0
   -1.2641    0.3966    3.4161 H   0  0  0  0  0  0  0  0  0  0  0  0
   -0.2813    0.2064    7.1717 H   0  0  0  0  0  0  0  0  0  0  0  0
    0.3047   -1.3548    7.6172 H   0  0  0  0  0  0  0  0  0  0  0  0
   -1.0447   -1.2158    6.4978 H   0  0  0  0  0  0  0  0  0  0  0  0
    2.6046   -0.7263    6.9573 H   0  0  0  0  0  0  0  0  0  0  0  0
    3.0470   -0.4728    5.2894 H   0  0  0  0  0  0  0  0  0  0  0  0
    1.6707    1.5193    7.1453 H   0  0  0  0  0  0  0  0  0  0  0  0
    3.8182    1.2271    7.5371 H   0  0  0  0  0  0  0  0  0  0  0  0
    3.7451    2.3263    4.4166 H   0  0  0  0  0  0  0  0  0  0  0  0
    2.1829    4.2323    5.5384 H   0  0  0  0  0  0  0  0  0  0  0  0
    0.1201    3.7425    6.8557 H   0  0  0  0  0  0  0  0  0  0  0  0
   -1.9715    2.5387    4.1266 H   0  0  0  0  0  0  0  0  0  0  0  0
   -1.1483    4.2773    2.2231 H   0  0  0  0  0  0  0  0  0  0  0  0
    0.0470    2.2514    2.4090 H   0  0  0  0  0  0  0  0  0  0  0  0
    2.0074    3.6168    2.9140 H   0  0  0  0  0  0  0  0  0  0  0  0
    0.6597    5.1487    2.3420 H   0  0  0  0  0  0  0  0  0  0  0  0
  1  2  1  0
  1 36  1  0
  1 37  1  0
  1 38  1  0
  2  3  1  0
  2  4  1  0
  2 39  1  1
  3 40  1  0
  4  5  1  0
  4  6  1  6
  4  7  1  0
  5 41  1  0
  5 42  1  0
  5 43  1  0
  6 44  1  0
  7  8  1  0
  7 45  1  0
  7 46  1  0
  8  9  1  0
  8 10  1  0
  8 47  1  1
  9 48  1  0
 10 11  1  0
 10 12  1  0
 10 13  1  0
 11 49  1  0
 11 50  1  0
 11 51  1  0
 12 52  1  0
 12 53  1  0
 12 54  1  0
 13 19  1  0
 13 14  1  0
 13 55  1  6
 14 15  1  0
 14 56  1  0
 14 57  1  0
 15 16  1  0
 15 17  1  0
 15 58  1  6
 16 59  1  0
 17 34  1  0
 17 18  1  6
 17 19  1  0
 18 60  1  0
 19 20  1  1
 19 21  1  0
 20 61  1  0
 20 62  1  0
 20 63  1  0
 21 22  1  0
 21 64  1  0
 21 65  1  0
 22 23  1  0
 22 24  1  0
 22 66  1  1
 23 67  1  0
 24 34  1  0
 24 25  1  6
 24 26  1  0
 25 68  1  0
 26 32  1  0
 26 27  1  0
 26 69  1  1
 27 35  1  0
 27 28  1  0
 27 70  1  1
 28 29  1  0
 29 30  1  0
 29 31  1  0
 29 71  1  1
 30 72  1  0
 31 32  1  0
 31 34  1  0
 31 73  1  6
 32 33  1  0
 32 74  1  6
 33 75  1  0
 34 35  1  1
M  END
>  <i_m_ct_stereo_status>  (56) 
1

>  <s_m_source_file>  (56) 
/var/tmp/pbs.5083858.sched01/tmpza6kqm8b/25fbxx885r.sdf

>  <i_m_source_file_index>  (56) 
2

>  <i_lp_mmshare_version>  (56) 
48012

>  <i_f3d_flags>  (56) 
0

>  <s_epik_input>  (56) 
W0NIM11bQ0BIXShbT0hdKVtDQEBdKFtDSDNdKShbT0hdKVtDSDJdW0NASF0oW09IXSlDKFtDSDNdKShbQ0gzXSlbQ0BIXShbQ0gyXVtDQEhdMVtPSF0pW0NAXShbQ0gzXSkoW0NAXTEoW0NAQF0yMzQpW09IXSlbQ0gyXVtDQEBIXShbT0hdKVtDQF0yKFtPSF0pW0NAQEhdNVtDQEhdKE80KU9bQ0BASF0oW09IXSlbQ0BIXTNbQ0BIXTVbT0hd

>  <s_epik_cmdline>  (56) 
J2VwaWtfcHl0aG9uJywgJy1waHQnLCAnMi4wJywgJy1waCcsICc3LjAnLCAnLXRuJywgJzgnLCAnLW1hJywgJzIwMCcsICctaW1hZScsICc8aW5maWxlLm1hZT4nLCAnLW9tYWUnLCAnPG91dGZpbGUubWFlPic=

>  <r_lp_tautomer_probability>  (56) 
1

>  <r_epik_Ionization_Penalty>  (56) 
3.21246e-06

>  <r_epik_Ionization_Penalty_Charging>  (56) 
0

>  <r_epik_Ionization_Penalty_Neutral>  (56) 
3.21246e-06

>  <r_epik_State_Penalty>  (56) 
-0

>  <r_epik_Charging_Adjusted_Penalty>  (56) 
0

>  <i_epik_Tot_Q>  (56) 
0

>  <i_epik_Tot_abs_Q>  (56) 
0

>  <s_epik_Chemistry_Notes>  (56) 
This compound contains an acetal/aminal-like group ( X-CH(R)-Y where X, Y are N, S, or O) that may be acid/base labile, releasing an aldehyde.

>  <s_lp_Force_Field>  (56) 
OPLS3e

>  <r_lp_Energy>  (56) 
94.4913

>  <b_lp_Chiralities_Consistent>  (56) 
1

>  <s_lp_Variant>  (56) 
19:0-1

>  <s_i_glide_gridfile>  (56) 
pfpi4k_grid

>  <i_i_glide_lignum>  (56) 
2

>  <i_i_glide_rotatable_bonds>  (56) 
14

>  <r_i_docking_score>  (56) 
-3.10382

>  <r_i_glide_ligand_efficiency>  (56) 
-0.0886805

>  <r_i_glide_ligand_efficiency_sa>  (56) 
-0.29008

>  <r_i_glide_ligand_efficiency_ln>  (56) 
-0.681357

>  <r_i_glide_gscore>  (56) 
-3.10382

>  <r_i_glide_lipo>  (56) 
-0.0350874

>  <r_i_glide_hbond>  (56) 
0

>  <r_i_glide_metal>  (56) 
-0

>  <r_i_glide_rewards>  (56) 
0

>  <r_i_glide_evdw>  (56) 
-20.0111

>  <r_i_glide_ecoul>  (56) 
-16.0694

>  <r_i_glide_erotb>  (56) 
0.40158

>  <r_i_glide_esite>  (56) 
-0.0593419

>  <r_i_glide_emodel>  (56) 
-39.8712

>  <r_i_glide_energy>  (56) 
-36.0805

>  <r_i_glide_einternal>  (56) 
10.9572

>  <r_i_glide_intrahb_reward>  (56) 
-0

>  <i_i_glide_confnum>  (56) 
2

>  <i_i_glide_posenum>  (56) 
12

>  <r_i_glide_eff_state_penalty>  (56) 
0

>  <ligand_id>  (56) 
19

>  <original_smiles>  (56) 
CC(O)C(C)(O)CC(O)C(C)(C)C1CC(O)C2(O)C1(C)CC(O)C1(O)C3C4OC(O)C(C3O)C12O4

>  <smiles>  (56) 
[H]OC1([H])OC2([H])OC34C1([H])C([H])(O[H])C2([H])C3(O[H])C([H])(O[H])C([H])([H])C1(C([H])([H])[H])C([H])(C(C([H])([H])[H])(C([H])([H])[H])C([H])(O[H])C([H])([H])C(O[H])(C([H])([H])[H])C([H])(O[H])C([H])([H])[H])C([H])([H])C([H])(O[H])C41O[H]

$$$$
19:0:2
     RDKit          3D

 75 79  0  0  1  0  0  0  0  0999 V2000
    4.6424   -6.3607    0.0745 C   0  0  0  0  0  0  0  0  0  0  0  0
    3.7075   -5.5790    1.0206 C   0  0  2  0  0  0  0  0  0  0  0  0
    2.4515   -5.4785    0.3584 O   0  0  0  0  0  0  0  0  0  0  0  0
    4.2476   -4.1763    1.4167 C   0  0  1  0  0  0  0  0  0  0  0  0
    5.5756   -4.2208    2.1874 C   0  0  0  0  0  0  0  0  0  0  0  0
    4.5360   -3.4697    0.2236 O   0  0  0  0  0  0  0  0  0  0  0  0
    3.2371   -3.3232    2.2035 C   0  0  0  0  0  0  0  0  0  0  0  0
    2.6270   -3.8302    3.5457 C   0  0  2  0  0  0  0  0  0  0  0  0
    1.4291   -4.5334    3.2731 O   0  0  0  0  0  0  0  0  0  0  0  0
    2.3538   -2.7303    4.6516 C   0  0  0  0  0  0  0  0  0  0  0  0
    1.6496   -3.4369    5.8336 C   0  0  0  0  0  0  0  0  0  0  0  0
    3.7429   -2.2835    5.1925 C   0  0  0  0  0  0  0  0  0  0  0  0
    1.4690   -1.5134    4.1248 C   0  0  2  0  0  0  0  0  0  0  0  0
    2.0264   -0.7673    2.8963 C   0  0  0  0  0  0  0  0  0  0  0  0
    1.7387    0.7085    3.0152 C   0  0  1  0  0  0  0  0  0  0  0  0
    1.4861    1.2595    1.7322 O   0  0  0  0  0  0  0  0  0  0  0  0
    0.5699    0.7859    4.0031 C   0  0  1  0  0  0  0  0  0  0  0  0
   -0.6032    0.4829    3.2596 O   0  0  0  0  0  0  0  0  0  0  0  0
    0.8931   -0.3544    5.0498 C   0  0  1  0  0  0  0  0  0  0  0  0
   -0.3807   -0.8330    5.8025 C   0  0  0  0  0  0  0  0  0  0  0  0
    1.9260    0.1816    6.1037 C   0  0  0  0  0  0  0  0  0  0  0  0
    1.5809    1.5580    6.7411 C   0  0  1  0  0  0  0  0  0  0  0  0
    2.5792    1.9208    7.6816 O   0  0  0  0  0  0  0  0  0  0  0  0
    1.4557    2.6214    5.6166 C   0  0  2  0  0  0  0  0  0  0  0  0
    2.7880    2.7965    5.1143 O   0  0  0  0  0  0  0  0  0  0  0  0
    0.7247    3.9567    5.8588 C   0  0  2  0  0  0  0  0  0  0  0  0
   -0.7710    3.4670    6.0199 C   0  0  1  0  0  0  0  0  0  0  0  0
   -1.6411    4.1492    5.1271 O   0  0  0  0  0  0  0  0  0  0  0  0
   -1.3996    3.7767    3.7750 C   0  0  1  0  0  0  0  0  0  0  0  0
   -1.7831    4.7942    2.8719 O   0  0  0  0  0  0  0  0  0  0  0  0
    0.1232    3.4703    3.6684 C   0  0  1  0  0  0  0  0  0  0  0  0
    0.8268    4.6123    4.4566 C   0  0  1  0  0  0  0  0  0  0  0  0
    0.3171    5.9423    4.3945 O   0  0  0  0  0  0  0  0  0  0  0  0
    0.3730    2.2021    4.6108 C   0  0  1  0  0  0  0  0  0  0  0  0
   -0.7122    2.1741    5.5511 O   0  0  0  0  0  0  0  0  0  0  0  0
    5.6281   -6.5196    0.5283 H   0  0  0  0  0  0  0  0  0  0  0  0
    4.8019   -5.8251   -0.8713 H   0  0  0  0  0  0  0  0  0  0  0  0
    4.2255   -7.3494   -0.1721 H   0  0  0  0  0  0  0  0  0  0  0  0
    3.5660   -6.1623    1.9320 H   0  0  0  0  0  0  0  0  0  0  0  0
    2.6082   -5.3080   -0.5597 H   0  0  0  0  0  0  0  0  0  0  0  0
    5.4690   -4.7056    3.1591 H   0  0  0  0  0  0  0  0  0  0  0  0
    5.9209   -3.2011    2.3862 H   0  0  0  0  0  0  0  0  0  0  0  0
    6.3810   -4.7056    1.6388 H   0  0  0  0  0  0  0  0  0  0  0  0
    3.7440   -3.3903   -0.2828 H   0  0  0  0  0  0  0  0  0  0  0  0
    3.8088   -2.4550    2.3943 H   0  0  0  0  0  0  0  0  0  0  0  0
    2.4331   -3.0675    1.5077 H   0  0  0  0  0  0  0  0  0  0  0  0
    3.2983   -4.5747    3.9694 H   0  0  0  0  0  0  0  0  0  0  0  0
    1.1795   -5.0109    4.0450 H   0  0  0  0  0  0  0  0  0  0  0  0
    1.6374   -2.8362    6.7428 H   0  0  0  0  0  0  0  0  0  0  0  0
    2.1423   -4.3737    6.1067 H   0  0  0  0  0  0  0  0  0  0  0  0
    0.6071   -3.6840    5.6079 H   0  0  0  0  0  0  0  0  0  0  0  0
    3.6772   -1.7954    6.1591 H   0  0  0  0  0  0  0  0  0  0  0  0
    4.2609   -1.6125    4.5192 H   0  0  0  0  0  0  0  0  0  0  0  0
    4.3865   -3.1449    5.3629 H   0  0  0  0  0  0  0  0  0  0  0  0
    0.5693   -2.0103    3.7580 H   0  0  0  0  0  0  0  0  0  0  0  0
    3.0830   -0.8120    2.7906 H   0  0  0  0  0  0  0  0  0  0  0  0
    1.5334   -1.1294    1.9874 H   0  0  0  0  0  0  0  0  0  0  0  0
    2.6387    1.1487    3.4288 H   0  0  0  0  0  0  0  0  0  0  0  0
    1.3201    2.1839    1.7730 H   0  0  0  0  0  0  0  0  0  0  0  0
   -0.6494    1.0930    2.5400 H   0  0  0  0  0  0  0  0  0  0  0  0
   -0.8847   -0.0327    6.3441 H   0  0  0  0  0  0  0  0  0  0  0  0
   -0.1529   -1.5906    6.5486 H   0  0  0  0  0  0  0  0  0  0  0  0
   -1.1123   -1.2641    5.1178 H   0  0  0  0  0  0  0  0  0  0  0  0
    2.0219   -0.5343    6.9155 H   0  0  0  0  0  0  0  0  0  0  0  0
    2.9099    0.2574    5.6393 H   0  0  0  0  0  0  0  0  0  0  0  0
    0.6631    1.4565    7.3162 H   0  0  0  0  0  0  0  0  0  0  0  0
    3.3791    2.0539    7.1991 H   0  0  0  0  0  0  0  0  0  0  0  0
    2.7584    3.2722    4.2991 H   0  0  0  0  0  0  0  0  0  0  0  0
    1.0804    4.5655    6.6906 H   0  0  0  0  0  0  0  0  0  0  0  0
   -1.1400    3.4710    7.0434 H   0  0  0  0  0  0  0  0  0  0  0  0
   -1.9963    2.8969    3.5198 H   0  0  0  0  0  0  0  0  0  0  0  0
   -1.2088    4.7153    2.1195 H   0  0  0  0  0  0  0  0  0  0  0  0
    0.4548    3.3293    2.6508 H   0  0  0  0  0  0  0  0  0  0  0  0
    1.8512    4.7279    4.1113 H   0  0  0  0  0  0  0  0  0  0  0  0
    0.5230    6.3140    3.5476 H   0  0  0  0  0  0  0  0  0  0  0  0
  1  2  1  0
  1 36  1  0
  1 37  1  0
  1 38  1  0
  2  3  1  0
  2  4  1  0
  2 39  1  1
  3 40  1  0
  4  5  1  0
  4  6  1  6
  4  7  1  0
  5 41  1  0
  5 42  1  0
  5 43  1  0
  6 44  1  0
  7  8  1  0
  7 45  1  0
  7 46  1  0
  8  9  1  0
  8 10  1  0
  8 47  1  1
  9 48  1  0
 10 11  1  0
 10 12  1  0
 10 13  1  0
 11 49  1  0
 11 50  1  0
 11 51  1  0
 12 52  1  0
 12 53  1  0
 12 54  1  0
 13 19  1  0
 13 14  1  0
 13 55  1  6
 14 15  1  0
 14 56  1  0
 14 57  1  0
 15 16  1  0
 15 17  1  0
 15 58  1  1
 16 59  1  0
 17 34  1  0
 17 18  1  6
 17 19  1  0
 18 60  1  0
 19 20  1  1
 19 21  1  0
 20 61  1  0
 20 62  1  0
 20 63  1  0
 21 22  1  0
 21 64  1  0
 21 65  1  0
 22 23  1  0
 22 24  1  0
 22 66  1  1
 23 67  1  0
 24 34  1  0
 24 25  1  6
 24 26  1  0
 25 68  1  0
 26 32  1  0
 26 27  1  0
 26 69  1  1
 27 35  1  0
 27 28  1  0
 27 70  1  1
 28 29  1  0
 29 30  1  0
 29 31  1  0
 29 71  1  6
 30 72  1  0
 31 32  1  0
 31 34  1  0
 31 73  1  6
 32 33  1  0
 32 74  1  6
 33 75  1  0
 34 35  1  1
M  END
>  <i_m_ct_stereo_status>  (57) 
1

>  <s_m_source_file>  (57) 
/var/tmp/pbs.5083858.sched01/tmpza6kqm8b/25fbxx885r.sdf

>  <i_m_source_file_index>  (57) 
2

>  <i_lp_mmshare_version>  (57) 
48012

>  <i_f3d_flags>  (57) 
0

>  <s_epik_input>  (57) 
W0NIM11bQ0BIXShbT0hdKVtDQEBdKFtDSDNdKShbT0hdKVtDSDJdW0NASF0oW09IXSlDKFtDSDNdKShbQ0gzXSlbQ0BIXShbQ0gyXVtDQEhdMVtPSF0pW0NAXShbQ0gzXSkoW0NAXTEoW0NAQF0yMzQpW09IXSlbQ0gyXVtDQEBIXShbT0hdKVtDQF0yKFtPSF0pW0NAQEhdNVtDQEhdKE80KU9bQ0BASF0oW09IXSlbQ0BIXTNbQ0BIXTVbT0hd

>  <s_epik_cmdline>  (57) 
J2VwaWtfcHl0aG9uJywgJy1waHQnLCAnMi4wJywgJy1waCcsICc3LjAnLCAnLXRuJywgJzgnLCAnLW1hJywgJzIwMCcsICctaW1hZScsICc8aW5maWxlLm1hZT4nLCAnLW9tYWUnLCAnPG91dGZpbGUubWFlPic=

>  <r_lp_tautomer_probability>  (57) 
1

>  <r_epik_Ionization_Penalty>  (57) 
3.21246e-06

>  <r_epik_Ionization_Penalty_Charging>  (57) 
0

>  <r_epik_Ionization_Penalty_Neutral>  (57) 
3.21246e-06

>  <r_epik_State_Penalty>  (57) 
-0

>  <r_epik_Charging_Adjusted_Penalty>  (57) 
0

>  <i_epik_Tot_Q>  (57) 
0

>  <i_epik_Tot_abs_Q>  (57) 
0

>  <s_epik_Chemistry_Notes>  (57) 
This compound contains an acetal/aminal-like group ( X-CH(R)-Y where X, Y are N, S, or O) that may be acid/base labile, releasing an aldehyde.

>  <s_lp_Force_Field>  (57) 
OPLS3e

>  <r_lp_Energy>  (57) 
94.4913

>  <b_lp_Chiralities_Consistent>  (57) 
1

>  <s_lp_Variant>  (57) 
19:0-1

>  <s_i_glide_gridfile>  (57) 
pfpi4k_grid

>  <i_i_glide_lignum>  (57) 
2

>  <i_i_glide_rotatable_bonds>  (57) 
14

>  <r_i_docking_score>  (57) 
-2.68773

>  <r_i_glide_ligand_efficiency>  (57) 
-0.0767923

>  <r_i_glide_ligand_efficiency_sa>  (57) 
-0.251193

>  <r_i_glide_ligand_efficiency_ln>  (57) 
-0.590016

>  <r_i_glide_gscore>  (57) 
-2.68773

>  <r_i_glide_lipo>  (57) 
-0.153248

>  <r_i_glide_hbond>  (57) 
0

>  <r_i_glide_metal>  (57) 
-0

>  <r_i_glide_rewards>  (57) 
0

>  <r_i_glide_evdw>  (57) 
-21.8662

>  <r_i_glide_ecoul>  (57) 
-11.7405

>  <r_i_glide_erotb>  (57) 
0.40158

>  <r_i_glide_esite>  (57) 
-0.0816819

>  <r_i_glide_emodel>  (57) 
-34.871

>  <r_i_glide_energy>  (57) 
-33.6066

>  <r_i_glide_einternal>  (57) 
11.2347

>  <r_i_glide_intrahb_reward>  (57) 
-0

>  <i_i_glide_confnum>  (57) 
2

>  <i_i_glide_posenum>  (57) 
24

>  <r_i_glide_eff_state_penalty>  (57) 
0

>  <ligand_id>  (57) 
19

>  <original_smiles>  (57) 
CC(O)C(C)(O)CC(O)C(C)(C)C1CC(O)C2(O)C1(C)CC(O)C1(O)C3C4OC(O)C(C3O)C12O4

>  <smiles>  (57) 
[H]OC1([H])OC2([H])OC34C1([H])C([H])(O[H])C2([H])C3(O[H])C([H])(O[H])C([H])([H])C1(C([H])([H])[H])C([H])(C(C([H])([H])[H])(C([H])([H])[H])C([H])(O[H])C([H])([H])C(O[H])(C([H])([H])[H])C([H])(O[H])C([H])([H])[H])C([H])([H])C([H])(O[H])C41O[H]

$$$$
20:0:0
     RDKit          3D

 27 30  0  0  1  0  0  0  0  0999 V2000
    4.2958   -9.6269    2.5142 N   0  0  0  0  0  0  0  0  0  0  0  0
    4.1259   -8.3185    2.0461 C   0  0  0  0  0  0  0  0  0  0  0  0
    5.2198   -7.5063    1.6525 C   0  0  0  0  0  0  0  0  0  0  0  0
    6.5453   -7.9938    1.6798 C   0  0  0  0  0  0  0  0  0  0  0  0
    7.6167   -7.1707    1.2966 C   0  0  0  0  0  0  0  0  0  0  0  0
    7.3760   -5.8466    0.8818 C   0  0  0  0  0  0  0  0  0  0  0  0
    6.0572   -5.3542    0.8498 C   0  0  0  0  0  0  0  0  0  0  0  0
    4.9639   -6.1613    1.2270 C   0  0  0  0  0  0  0  0  0  0  0  0
    3.7300   -5.6159    1.1708 N   0  0  0  0  0  0  0  0  0  0  0  0
    2.7137   -6.4303    1.5452 C   0  0  0  0  0  0  0  0  0  0  0  0
    1.3861   -6.0514    1.5560 O   0  0  0  0  0  0  0  0  0  0  0  0
    0.6185   -7.1098    1.9993 C   0  0  0  0  0  0  0  0  0  0  0  0
   -0.7397   -7.0625    2.1376 N   0  0  0  0  0  0  0  0  0  0  0  0
   -1.2969   -8.2194    2.5702 C   0  0  0  0  0  0  0  0  0  0  0  0
   -0.5661   -9.3829    2.8857 C   0  0  0  0  0  0  0  0  0  0  0  0
    0.8321   -9.3845    2.7397 C   0  0  0  0  0  0  0  0  0  0  0  0
    1.4709   -8.2157    2.2784 C   0  0  0  0  0  0  0  0  0  0  0  0
    2.8257   -7.7756    1.9892 C   0  0  0  0  0  0  0  0  0  0  0  0
    5.1767  -10.1141    2.4981 H   0  0  0  0  0  0  0  0  0  0  0  0
    6.7496   -9.0045    1.9944 H   0  0  0  0  0  0  0  0  0  0  0  0
    8.6186   -7.5616    1.3187 H   0  0  0  0  0  0  0  0  0  0  0  0
    8.1928   -5.2063    0.5826 H   0  0  0  0  0  0  0  0  0  0  0  0
    5.8688   -4.3378    0.5278 H   0  0  0  0  0  0  0  0  0  0  0  0
   -2.3697   -8.2140    2.6838 H   0  0  0  0  0  0  0  0  0  0  0  0
   -1.0772  -10.2539    3.2572 H   0  0  0  0  0  0  0  0  0  0  0  0
    1.4135  -10.2661    2.9783 H   0  0  0  0  0  0  0  0  0  0  0  0
    3.4908  -10.2070    2.7034 H   0  0  0  0  0  0  0  0  0  0  0  0
  1  2  1  0
  1 19  1  0
  1 27  1  0
  2 18  2  0
  2  3  1  0
  3  8  2  0
  3  4  1  0
  4  5  2  0
  4 20  1  0
  5  6  1  0
  5 21  1  0
  6  7  2  0
  6 22  1  0
  7  8  1  0
  7 23  1  0
  8  9  1  0
  9 10  2  0
 10 18  1  0
 10 11  1  0
 11 12  1  0
 12 17  2  0
 12 13  1  0
 13 14  2  0
 14 15  1  0
 14 24  1  0
 15 16  2  0
 15 25  1  0
 16 17  1  0
 16 26  1  0
 17 18  1  0
M  END
>  <i_m_ct_stereo_status>  (58) 
1

>  <s_m_source_file>  (58) 
/var/tmp/pbs.5083858.sched01/tmpza6kqm8b/25fbxx885r.sdf

>  <i_m_source_file_index>  (58) 
3

>  <i_lp_mmshare_version>  (58) 
48012

>  <i_f3d_flags>  (58) 
0

>  <s_epik_input>  (58) 
W2NIXTFbY0hdW2NIXW5jKG8yKWMxYyhjXDM9TlxbSF0pYzJbbkhdYyhjMzQpW2NIXVtjSF1bY0hdW2NIXTQ=

>  <s_epik_cmdline>  (58) 
J2VwaWtfcHl0aG9uJywgJy1waHQnLCAnMi4wJywgJy1waCcsICc3LjAnLCAnLXRuJywgJzgnLCAnLW1hJywgJzIwMCcsICctaW1hZScsICc8aW5maWxlLm1hZT4nLCAnLW9tYWUnLCAnPG91dGZpbGUubWFlPic=

>  <r_epik_Ionization_Penalty>  (58) 
2.37445e-05

>  <r_epik_Ionization_Penalty_Charging>  (58) 
0

>  <r_epik_Ionization_Penalty_Neutral>  (58) 
2.37445e-05

>  <r_epik_State_Penalty>  (58) 
0.030369

>  <r_epik_Charging_Adjusted_Penalty>  (58) 
0.030369

>  <i_epik_Tot_Q>  (58) 
0

>  <i_epik_Tot_abs_Q>  (58) 
0

>  <s_lp_Force_Field>  (58) 
OPLS3e

>  <r_lp_Energy>  (58) 
33.6063

>  <b_lp_Chiralities_Consistent>  (58) 
1

>  <s_lp_Variant>  (58) 
20:0-1

>  <s_i_glide_gridfile>  (58) 
pfpi4k_grid

>  <i_i_glide_lignum>  (58) 
3

>  <i_i_glide_rotatable_bonds>  (58) 
0

>  <r_i_docking_score>  (58) 
-4.12442

>  <r_i_glide_ligand_efficiency>  (58) 
-0.229135

>  <r_i_glide_ligand_efficiency_sa>  (58) 
-0.600503

>  <r_i_glide_ligand_efficiency_ln>  (58) 
-1.06016

>  <r_i_glide_gscore>  (58) 
-4.12442

>  <r_i_glide_lipo>  (58) 
-0.42953

>  <r_i_glide_hbond>  (58) 
-0.248295

>  <r_i_glide_metal>  (58) 
-0

>  <r_i_glide_rewards>  (58) 
-1.80518

>  <r_i_glide_evdw>  (58) 
-22.2964

>  <r_i_glide_ecoul>  (58) 
-3.23598

>  <r_i_glide_erotb>  (58) 
0

>  <r_i_glide_esite>  (58) 
-0.0412032

>  <r_i_glide_emodel>  (58) 
-33.1223

>  <r_i_glide_energy>  (58) 
-25.5324

>  <r_i_glide_einternal>  (58) 
0

>  <r_i_glide_intrahb_reward>  (58) 
-0

>  <i_i_glide_confnum>  (58) 
1

>  <i_i_glide_posenum>  (58) 
14

>  <r_i_glide_eff_state_penalty>  (58) 
0

>  <ligand_id>  (58) 
20

>  <original_smiles>  (58) 
N=c1c2ccccc2[nH]c2oc3ncccc3c12

>  <smiles>  (58) 
[H]c1nc2oc3nc4c([H])c([H])c([H])c([H])c4c(N([H])[H])c3c2c([H])c1[H]

$$$$
20:0:1
     RDKit          3D

 27 30  0  0  1  0  0  0  0  0999 V2000
    4.2633   -8.6736    2.3210 N   0  0  0  0  0  0  0  0  0  0  0  0
    3.1486   -7.9005    1.9767 C   0  0  0  0  0  0  0  0  0  0  0  0
    1.8159   -8.3280    2.2136 C   0  0  0  0  0  0  0  0  0  0  0  0
    1.5457   -9.5847    2.8087 C   0  0  0  0  0  0  0  0  0  0  0  0
    0.2202   -9.9902    3.0422 C   0  0  0  0  0  0  0  0  0  0  0  0
   -0.8484   -9.1442    2.6861 C   0  0  0  0  0  0  0  0  0  0  0  0
   -0.5826   -7.8967    2.0955 C   0  0  0  0  0  0  0  0  0  0  0  0
    0.7336   -7.4691    1.8429 C   0  0  0  0  0  0  0  0  0  0  0  0
    0.9023   -6.2580    1.2661 N   0  0  0  0  0  0  0  0  0  0  0  0
    2.1935   -5.8875    1.0572 C   0  0  0  0  0  0  0  0  0  0  0  0
    2.5689   -4.6834    0.4916 O   0  0  0  0  0  0  0  0  0  0  0  0
    3.9466   -4.6254    0.4310 C   0  0  0  0  0  0  0  0  0  0  0  0
    4.6549   -3.5729   -0.0733 N   0  0  0  0  0  0  0  0  0  0  0  0
    5.9987   -3.7148   -0.0377 C   0  0  0  0  0  0  0  0  0  0  0  0
    6.6606   -4.8488    0.4791 C   0  0  0  0  0  0  0  0  0  0  0  0
    5.8947   -5.9156    0.9857 C   0  0  0  0  0  0  0  0  0  0  0  0
    4.4892   -5.8255    0.9755 C   0  0  0  0  0  0  0  0  0  0  0  0
    3.3547   -6.6389    1.3804 C   0  0  0  0  0  0  0  0  0  0  0  0
    4.1924   -9.6032    2.7066 H   0  0  0  0  0  0  0  0  0  0  0  0
    2.3482  -10.2500    3.0883 H   0  0  0  0  0  0  0  0  0  0  0  0
    0.0166  -10.9504    3.4921 H   0  0  0  0  0  0  0  0  0  0  0  0
   -1.8691   -9.4558    2.8532 H   0  0  0  0  0  0  0  0  0  0  0  0
   -1.3986   -7.2550    1.8150 H   0  0  0  0  0  0  0  0  0  0  0  0
    6.5660   -2.8884   -0.4438 H   0  0  0  0  0  0  0  0  0  0  0  0
    7.7396   -4.9111    0.4719 H   0  0  0  0  0  0  0  0  0  0  0  0
    6.3737   -6.8029    1.3769 H   0  0  0  0  0  0  0  0  0  0  0  0
    5.1971   -8.3535    2.1174 H   0  0  0  0  0  0  0  0  0  0  0  0
  1  2  1  0
  1 19  1  0
  1 27  1  0
  2 18  2  0
  2  3  1  0
  3  8  2  0
  3  4  1  0
  4  5  2  0
  4 20  1  0
  5  6  1  0
  5 21  1  0
  6  7  2  0
  6 22  1  0
  7  8  1  0
  7 23  1  0
  8  9  1  0
  9 10  2  0
 10 18  1  0
 10 11  1  0
 11 12  1  0
 12 17  2  0
 12 13  1  0
 13 14  2  0
 14 15  1  0
 14 24  1  0
 15 16  2  0
 15 25  1  0
 16 17  1  0
 16 26  1  0
 17 18  1  0
M  END
>  <i_m_ct_stereo_status>  (59) 
1

>  <s_m_source_file>  (59) 
/var/tmp/pbs.5083858.sched01/tmpza6kqm8b/25fbxx885r.sdf

>  <i_m_source_file_index>  (59) 
3

>  <i_lp_mmshare_version>  (59) 
48012

>  <i_f3d_flags>  (59) 
0

>  <s_epik_input>  (59) 
W2NIXTFbY0hdW2NIXW5jKG8yKWMxYyhjXDM9TlxbSF0pYzJbbkhdYyhjMzQpW2NIXVtjSF1bY0hdW2NIXTQ=

>  <s_epik_cmdline>  (59) 
J2VwaWtfcHl0aG9uJywgJy1waHQnLCAnMi4wJywgJy1waCcsICc3LjAnLCAnLXRuJywgJzgnLCAnLW1hJywgJzIwMCcsICctaW1hZScsICc8aW5maWxlLm1hZT4nLCAnLW9tYWUnLCAnPG91dGZpbGUubWFlPic=

>  <r_epik_Ionization_Penalty>  (59) 
2.37445e-05

>  <r_epik_Ionization_Penalty_Charging>  (59) 
0

>  <r_epik_Ionization_Penalty_Neutral>  (59) 
2.37445e-05

>  <r_epik_State_Penalty>  (59) 
0.030369

>  <r_epik_Charging_Adjusted_Penalty>  (59) 
0.030369

>  <i_epik_Tot_Q>  (59) 
0

>  <i_epik_Tot_abs_Q>  (59) 
0

>  <s_lp_Force_Field>  (59) 
OPLS3e

>  <r_lp_Energy>  (59) 
33.6063

>  <b_lp_Chiralities_Consistent>  (59) 
1

>  <s_lp_Variant>  (59) 
20:0-1

>  <s_i_glide_gridfile>  (59) 
pfpi4k_grid

>  <i_i_glide_lignum>  (59) 
3

>  <i_i_glide_rotatable_bonds>  (59) 
0

>  <r_i_docking_score>  (59) 
-3.91458

>  <r_i_glide_ligand_efficiency>  (59) 
-0.217477

>  <r_i_glide_ligand_efficiency_sa>  (59) 
-0.56995

>  <r_i_glide_ligand_efficiency_ln>  (59) 
-1.00622

>  <r_i_glide_gscore>  (59) 
-3.91458

>  <r_i_glide_lipo>  (59) 
-0.516795

>  <r_i_glide_hbond>  (59) 
-0.16

>  <r_i_glide_metal>  (59) 
-0

>  <r_i_glide_rewards>  (59) 
-1.80518

>  <r_i_glide_evdw>  (59) 
-22.1209

>  <r_i_glide_ecoul>  (59) 
-2.0861

>  <r_i_glide_erotb>  (59) 
0

>  <r_i_glide_esite>  (59) 
-0.0136459

>  <r_i_glide_emodel>  (59) 
-31.4089

>  <r_i_glide_energy>  (59) 
-24.207

>  <r_i_glide_einternal>  (59) 
0

>  <r_i_glide_intrahb_reward>  (59) 
-0

>  <i_i_glide_confnum>  (59) 
2

>  <i_i_glide_posenum>  (59) 
28

>  <r_i_glide_eff_state_penalty>  (59) 
0

>  <ligand_id>  (59) 
20

>  <original_smiles>  (59) 
N=c1c2ccccc2[nH]c2oc3ncccc3c12

>  <smiles>  (59) 
[H]c1nc2oc3nc4c([H])c([H])c([H])c([H])c4c(N([H])[H])c3c2c([H])c1[H]

$$$$
20:0:2
     RDKit          3D

 27 30  0  0  1  0  0  0  0  0999 V2000
    4.5752   -8.4830    2.3120 N   0  0  0  0  0  0  0  0  0  0  0  0
    3.9176   -7.3695    1.7767 C   0  0  0  0  0  0  0  0  0  0  0  0
    4.6169   -6.2727    1.2081 C   0  0  0  0  0  0  0  0  0  0  0  0
    6.0295   -6.2534    1.1481 C   0  0  0  0  0  0  0  0  0  0  0  0
    6.7049   -5.1570    0.5813 C   0  0  0  0  0  0  0  0  0  0  0  0
    5.9707   -4.0696    0.0692 C   0  0  0  0  0  0  0  0  0  0  0  0
    4.5647   -4.0819    0.1277 C   0  0  0  0  0  0  0  0  0  0  0  0
    3.8668   -5.1681    0.6913 C   0  0  0  0  0  0  0  0  0  0  0  0
    2.5188   -5.1033    0.7210 N   0  0  0  0  0  0  0  0  0  0  0  0
    1.8945   -6.1684    1.2729 C   0  0  0  0  0  0  0  0  0  0  0  0
    0.5235   -6.2770    1.3939 O   0  0  0  0  0  0  0  0  0  0  0  0
    0.2207   -7.4752    2.0065 C   0  0  0  0  0  0  0  0  0  0  0  0
   -1.0465   -7.8856    2.2934 N   0  0  0  0  0  0  0  0  0  0  0  0
   -1.1228   -9.1016    2.8823 C   0  0  0  0  0  0  0  0  0  0  0  0
   -0.0031   -9.8927    3.2147 C   0  0  0  0  0  0  0  0  0  0  0  0
    1.2870   -9.4250    2.9142 C   0  0  0  0  0  0  0  0  0  0  0  0
    1.4301   -8.1729    2.2862 C   0  0  0  0  0  0  0  0  0  0  0  0
    2.5114   -7.3268    1.8158 C   0  0  0  0  0  0  0  0  0  0  0  0
    5.5762   -8.5921    2.3114 H   0  0  0  0  0  0  0  0  0  0  0  0
    6.6073   -7.0810    1.5244 H   0  0  0  0  0  0  0  0  0  0  0  0
    7.7849   -5.1585    0.5271 H   0  0  0  0  0  0  0  0  0  0  0  0
    6.4791   -3.2270   -0.3767 H   0  0  0  0  0  0  0  0  0  0  0  0
    4.0030   -3.2479   -0.2643 H   0  0  0  0  0  0  0  0  0  0  0  0
   -2.1197   -9.4584    3.0941 H   0  0  0  0  0  0  0  0  0  0  0  0
   -0.1376  -10.8513    3.6986 H   0  0  0  0  0  0  0  0  0  0  0  0
    2.1606  -10.0123    3.1635 H   0  0  0  0  0  0  0  0  0  0  0  0
    4.0458   -9.2532    2.6925 H   0  0  0  0  0  0  0  0  0  0  0  0
  1  2  1  0
  1 19  1  0
  1 27  1  0
  2 18  2  0
  2  3  1  0
  3  8  2  0
  3  4  1  0
  4  5  2  0
  4 20  1  0
  5  6  1  0
  5 21  1  0
  6  7  2  0
  6 22  1  0
  7  8  1  0
  7 23  1  0
  8  9  1  0
  9 10  2  0
 10 18  1  0
 10 11  1  0
 11 12  1  0
 12 17  2  0
 12 13  1  0
 13 14  2  0
 14 15  1  0
 14 24  1  0
 15 16  2  0
 15 25  1  0
 16 17  1  0
 16 26  1  0
 17 18  1  0
M  END
>  <i_m_ct_stereo_status>  (60) 
1

>  <s_m_source_file>  (60) 
/var/tmp/pbs.5083858.sched01/tmpza6kqm8b/25fbxx885r.sdf

>  <i_m_source_file_index>  (60) 
3

>  <i_lp_mmshare_version>  (60) 
48012

>  <i_f3d_flags>  (60) 
0

>  <s_epik_input>  (60) 
W2NIXTFbY0hdW2NIXW5jKG8yKWMxYyhjXDM9TlxbSF0pYzJbbkhdYyhjMzQpW2NIXVtjSF1bY0hdW2NIXTQ=

>  <s_epik_cmdline>  (60) 
J2VwaWtfcHl0aG9uJywgJy1waHQnLCAnMi4wJywgJy1waCcsICc3LjAnLCAnLXRuJywgJzgnLCAnLW1hJywgJzIwMCcsICctaW1hZScsICc8aW5maWxlLm1hZT4nLCAnLW9tYWUnLCAnPG91dGZpbGUubWFlPic=

>  <r_epik_Ionization_Penalty>  (60) 
2.37445e-05

>  <r_epik_Ionization_Penalty_Charging>  (60) 
0

>  <r_epik_Ionization_Penalty_Neutral>  (60) 
2.37445e-05

>  <r_epik_State_Penalty>  (60) 
0.030369

>  <r_epik_Charging_Adjusted_Penalty>  (60) 
0.030369

>  <i_epik_Tot_Q>  (60) 
0

>  <i_epik_Tot_abs_Q>  (60) 
0

>  <s_lp_Force_Field>  (60) 
OPLS3e

>  <r_lp_Energy>  (60) 
33.6063

>  <b_lp_Chiralities_Consistent>  (60) 
1

>  <s_lp_Variant>  (60) 
20:0-1

>  <s_i_glide_gridfile>  (60) 
pfpi4k_grid

>  <i_i_glide_lignum>  (60) 
3

>  <i_i_glide_rotatable_bonds>  (60) 
0

>  <r_i_docking_score>  (60) 
-3.76374

>  <r_i_glide_ligand_efficiency>  (60) 
-0.209097

>  <r_i_glide_ligand_efficiency_sa>  (60) 
-0.547988

>  <r_i_glide_ligand_efficiency_ln>  (60) 
-0.96745

>  <r_i_glide_gscore>  (60) 
-3.76374

>  <r_i_glide_lipo>  (60) 
-0.461802

>  <r_i_glide_hbond>  (60) 
-0.16

>  <r_i_glide_metal>  (60) 
-0

>  <r_i_glide_rewards>  (60) 
-1.80518

>  <r_i_glide_evdw>  (60) 
-22.3002

>  <r_i_glide_ecoul>  (60) 
-1.43818

>  <r_i_glide_erotb>  (60) 
0

>  <r_i_glide_esite>  (60) 
-0.00602482

>  <r_i_glide_emodel>  (60) 
-30.6657

>  <r_i_glide_energy>  (60) 
-23.7384

>  <r_i_glide_einternal>  (60) 
0

>  <r_i_glide_intrahb_reward>  (60) 
-0

>  <i_i_glide_confnum>  (60) 
2

>  <i_i_glide_posenum>  (60) 
27

>  <r_i_glide_eff_state_penalty>  (60) 
0

>  <ligand_id>  (60) 
20

>  <original_smiles>  (60) 
N=c1c2ccccc2[nH]c2oc3ncccc3c12

>  <smiles>  (60) 
[H]c1nc2oc3nc4c([H])c([H])c([H])c([H])c4c(N([H])[H])c3c2c([H])c1[H]

$$$$
20:1:0
     RDKit          3D

 28 31  0  0  1  0  0  0  0  0999 V2000
    4.7156   -8.6177    1.7928 N   0  0  0  0  0  0  0  0  0  0  0  0
    4.1109   -7.4909    1.5800 C   0  0  0  0  0  0  0  0  0  0  0  0
    4.8223   -6.2601    1.1310 C   0  0  0  0  0  0  0  0  0  0  0  0
    6.2163   -6.2536    0.9115 C   0  0  0  0  0  0  0  0  0  0  0  0
    6.8552   -5.0735    0.4831 C   0  0  0  0  0  0  0  0  0  0  0  0
    6.1090   -3.8934    0.2745 C   0  0  0  0  0  0  0  0  0  0  0  0
    4.7177   -3.8827    0.4976 C   0  0  0  0  0  0  0  0  0  0  0  0
    4.0671   -5.0588    0.9236 C   0  0  0  0  0  0  0  0  0  0  0  0
    2.6766   -5.0308    1.1408 N   0  0  0  0  0  0  0  0  0  0  0  0
    2.0439   -6.1916    1.5526 C   0  0  0  0  0  0  0  0  0  0  0  0
    0.6990   -6.2607    1.7697 O   0  0  0  0  0  0  0  0  0  0  0  0
    0.4435   -7.5745    2.1667 C   0  0  0  0  0  0  0  0  0  0  0  0
   -0.8012   -8.0294    2.4886 N   0  0  0  0  0  0  0  0  0  0  0  0
   -0.8365   -9.3348    2.8476 C   0  0  0  0  0  0  0  0  0  0  0  0
    0.2952  -10.1814    2.8949 C   0  0  0  0  0  0  0  0  0  0  0  0
    1.5610   -9.6702    2.5567 C   0  0  0  0  0  0  0  0  0  0  0  0
    1.6638   -8.3179    2.1800 C   0  0  0  0  0  0  0  0  0  0  0  0
    2.6643   -7.3792    1.7757 C   0  0  0  0  0  0  0  0  0  0  0  0
    2.1945   -4.1574    1.0037 H   0  0  0  0  0  0  0  0  0  0  0  0
    4.1818   -9.4319    2.0889 H   0  0  0  0  0  0  0  0  0  0  0  0
    6.8026   -7.1471    1.0553 H   0  0  0  0  0  0  0  0  0  0  0  0
    7.9175   -5.0825    0.3034 H   0  0  0  0  0  0  0  0  0  0  0  0
    6.5999   -2.9929   -0.0578 H   0  0  0  0  0  0  0  0  0  0  0  0
    4.1467   -2.9744    0.3434 H   0  0  0  0  0  0  0  0  0  0  0  0
   -1.8117   -9.7245    3.1045 H   0  0  0  0  0  0  0  0  0  0  0  0
    0.2067  -11.2173    3.1884 H   0  0  0  0  0  0  0  0  0  0  0  0
    2.4310  -10.3126    2.5866 H   0  0  0  0  0  0  0  0  0  0  0  0
    5.7184   -8.7281    1.6737 H   0  0  0  0  0  0  0  0  0  0  0  0
  1  2  2  3
  1 20  1  0
  1 28  1  0
  2 18  1  0
  2  3  1  0
  3  8  2  0
  3  4  1  0
  4  5  2  0
  4 21  1  0
  5  6  1  0
  5 22  1  0
  6  7  2  0
  6 23  1  0
  7  8  1  0
  7 24  1  0
  8  9  1  0
  9 19  1  0
  9 10  1  0
 10 18  2  0
 10 11  1  0
 11 12  1  0
 12 17  2  0
 12 13  1  0
 13 14  2  0
 14 15  1  0
 14 25  1  0
 15 16  2  0
 15 26  1  0
 16 17  1  0
 16 27  1  0
 17 18  1  0
M  CHG  1   1   1
M  END
>  <i_m_ct_stereo_status>  (61) 
1

>  <s_m_source_file>  (61) 
/var/tmp/pbs.5083858.sched01/tmpza6kqm8b/25fbxx885r.sdf

>  <i_m_source_file_index>  (61) 
4

>  <i_lp_mmshare_version>  (61) 
48012

>  <i_f3d_flags>  (61) 
0

>  <s_epik_input>  (61) 
W2NIXTFbY0hdW2NIXW5jKG8yKWMxYyhjXDM9TlxbSF0pYzJbbkhdYyhjMzQpW2NIXVtjSF1bY0hdW2NIXTQ=

>  <s_epik_cmdline>  (61) 
J2VwaWtfcHl0aG9uJywgJy1waHQnLCAnMi4wJywgJy1waCcsICc3LjAnLCAnLXRuJywgJzgnLCAnLW1hJywgJzIwMCcsICctaW1hZScsICc8aW5maWxlLm1hZT4nLCAnLW9tYWUnLCAnPG91dGZpbGUubWFlPic=

>  <r_epik_Ionization_Penalty>  (61) 
0.00590658

>  <r_epik_Ionization_Penalty_Charging>  (61) 
5.18968e-05

>  <r_epik_Ionization_Penalty_Neutral>  (61) 
0.00585468

>  <r_epik_State_Penalty>  (61) 
1.77534

>  <r_epik_Charging_Adjusted_Penalty>  (61) 
1.77539

>  <i_epik_Tot_Q>  (61) 
1

>  <i_epik_Tot_abs_Q>  (61) 
1

>  <s_epik_Chemistry_Notes>  (61) 
This compound has an imine and may undergo hydrolysis.

>  <s_lp_Force_Field>  (61) 
OPLS3e

>  <r_lp_Energy>  (61) 
35.4363

>  <b_lp_Chiralities_Consistent>  (61) 
1

>  <s_lp_Variant>  (61) 
20:0-2

>  <s_i_glide_gridfile>  (61) 
pfpi4k_grid

>  <i_i_glide_lignum>  (61) 
4

>  <i_i_glide_rotatable_bonds>  (61) 
0

>  <r_i_docking_score>  (61) 
-4.2429

>  <r_i_glide_ligand_efficiency>  (61) 
-0.235717

>  <r_i_glide_ligand_efficiency_sa>  (61) 
-0.617752

>  <r_i_glide_ligand_efficiency_ln>  (61) 
-1.09062

>  <r_i_glide_gscore>  (61) 
-4.2429

>  <r_i_glide_lipo>  (61) 
-0.607585

>  <r_i_glide_hbond>  (61) 
-0.140241

>  <r_i_glide_metal>  (61) 
-0

>  <r_i_glide_rewards>  (61) 
-1.7983

>  <r_i_glide_evdw>  (61) 
-21.5744

>  <r_i_glide_ecoul>  (61) 
-3.89462

>  <r_i_glide_erotb>  (61) 
0

>  <r_i_glide_esite>  (61) 
-0.0338525

>  <r_i_glide_emodel>  (61) 
-36.2268

>  <r_i_glide_energy>  (61) 
-25.4691

>  <r_i_glide_einternal>  (61) 
0

>  <r_i_glide_intrahb_reward>  (61) 
-0

>  <i_i_glide_confnum>  (61) 
2

>  <i_i_glide_posenum>  (61) 
26

>  <r_i_glide_eff_state_penalty>  (61) 
0

>  <ligand_id>  (61) 
20

>  <original_smiles>  (61) 
N=c1c2ccccc2[nH]c2oc3ncccc3c12

>  <smiles>  (61) 
[H]c1nc2oc3c(c(=[N+]([H])[H])c4c([H])c([H])c([H])c([H])c4n3[H])c2c([H])c1[H]

$$$$
20:1:1
     RDKit          3D

 28 31  0  0  1  0  0  0  0  0999 V2000
    4.0654   -9.8212    2.4748 N   0  0  0  0  0  0  0  0  0  0  0  0
    4.0002   -8.5875    2.0854 C   0  0  0  0  0  0  0  0  0  0  0  0
    5.1974   -7.8018    1.6802 C   0  0  0  0  0  0  0  0  0  0  0  0
    6.4914   -8.3700    1.6853 C   0  0  0  0  0  0  0  0  0  0  0  0
    7.6003   -7.5897    1.3054 C   0  0  0  0  0  0  0  0  0  0  0  0
    7.4272   -6.2458    0.9127 C   0  0  0  0  0  0  0  0  0  0  0  0
    6.1419   -5.6670    0.8952 C   0  0  0  0  0  0  0  0  0  0  0  0
    5.0222   -6.4329    1.2762 C   0  0  0  0  0  0  0  0  0  0  0  0
    3.7443   -5.8423    1.2557 N   0  0  0  0  0  0  0  0  0  0  0  0
    2.6523   -6.6059    1.6234 C   0  0  0  0  0  0  0  0  0  0  0  0
    1.3744   -6.1235    1.6174 O   0  0  0  0  0  0  0  0  0  0  0  0
    0.5659   -7.1719    2.0463 C   0  0  0  0  0  0  0  0  0  0  0  0
   -0.7871   -7.0610    2.1831 N   0  0  0  0  0  0  0  0  0  0  0  0
   -1.3943   -8.1959    2.5965 C   0  0  0  0  0  0  0  0  0  0  0  0
   -0.7192   -9.3983    2.8858 C   0  0  0  0  0  0  0  0  0  0  0  0
    0.6784   -9.4694    2.7497 C   0  0  0  0  0  0  0  0  0  0  0  0
    1.3729   -8.3241    2.3115 C   0  0  0  0  0  0  0  0  0  0  0  0
    2.7067   -7.9029    2.0239 C   0  0  0  0  0  0  0  0  0  0  0  0
    3.6472   -4.8821    0.9622 H   0  0  0  0  0  0  0  0  0  0  0  0
    3.2141  -10.3293    2.7032 H   0  0  0  0  0  0  0  0  0  0  0  0
    6.6405   -9.3989    1.9793 H   0  0  0  0  0  0  0  0  0  0  0  0
    8.5887   -8.0168    1.3090 H   0  0  0  0  0  0  0  0  0  0  0  0
    8.2792   -5.6546    0.6136 H   0  0  0  0  0  0  0  0  0  0  0  0
    6.0100   -4.6348    0.5893 H   0  0  0  0  0  0  0  0  0  0  0  0
   -2.4697   -8.1485    2.7077 H   0  0  0  0  0  0  0  0  0  0  0  0
   -1.2695  -10.2542    3.2401 H   0  0  0  0  0  0  0  0  0  0  0  0
    1.2053  -10.3868    2.9688 H   0  0  0  0  0  0  0  0  0  0  0  0
    4.9359  -10.3499    2.4772 H   0  0  0  0  0  0  0  0  0  0  0  0
  1  2  2  3
  1 20  1  0
  1 28  1  0
  2 18  1  0
  2  3  1  0
  3  8  2  0
  3  4  1  0
  4  5  2  0
  4 21  1  0
  5  6  1  0
  5 22  1  0
  6  7  2  0
  6 23  1  0
  7  8  1  0
  7 24  1  0
  8  9  1  0
  9 19  1  0
  9 10  1  0
 10 18  2  0
 10 11  1  0
 11 12  1  0
 12 17  2  0
 12 13  1  0
 13 14  2  0
 14 15  1  0
 14 25  1  0
 15 16  2  0
 15 26  1  0
 16 17  1  0
 16 27  1  0
 17 18  1  0
M  CHG  1   1   1
M  END
>  <i_m_ct_stereo_status>  (62) 
1

>  <s_m_source_file>  (62) 
/var/tmp/pbs.5083858.sched01/tmpza6kqm8b/25fbxx885r.sdf

>  <i_m_source_file_index>  (62) 
4

>  <i_lp_mmshare_version>  (62) 
48012

>  <i_f3d_flags>  (62) 
0

>  <s_epik_input>  (62) 
W2NIXTFbY0hdW2NIXW5jKG8yKWMxYyhjXDM9TlxbSF0pYzJbbkhdYyhjMzQpW2NIXVtjSF1bY0hdW2NIXTQ=

>  <s_epik_cmdline>  (62) 
J2VwaWtfcHl0aG9uJywgJy1waHQnLCAnMi4wJywgJy1waCcsICc3LjAnLCAnLXRuJywgJzgnLCAnLW1hJywgJzIwMCcsICctaW1hZScsICc8aW5maWxlLm1hZT4nLCAnLW9tYWUnLCAnPG91dGZpbGUubWFlPic=

>  <r_epik_Ionization_Penalty>  (62) 
0.00590658

>  <r_epik_Ionization_Penalty_Charging>  (62) 
5.18968e-05

>  <r_epik_Ionization_Penalty_Neutral>  (62) 
0.00585468

>  <r_epik_State_Penalty>  (62) 
1.77534

>  <r_epik_Charging_Adjusted_Penalty>  (62) 
1.77539

>  <i_epik_Tot_Q>  (62) 
1

>  <i_epik_Tot_abs_Q>  (62) 
1

>  <s_epik_Chemistry_Notes>  (62) 
This compound has an imine and may undergo hydrolysis.

>  <s_lp_Force_Field>  (62) 
OPLS3e

>  <r_lp_Energy>  (62) 
35.4363

>  <b_lp_Chiralities_Consistent>  (62) 
1

>  <s_lp_Variant>  (62) 
20:0-2

>  <s_i_glide_gridfile>  (62) 
pfpi4k_grid

>  <i_i_glide_lignum>  (62) 
4

>  <i_i_glide_rotatable_bonds>  (62) 
0

>  <r_i_docking_score>  (62) 
-4.22416

>  <r_i_glide_ligand_efficiency>  (62) 
-0.234676

>  <r_i_glide_ligand_efficiency_sa>  (62) 
-0.615024

>  <r_i_glide_ligand_efficiency_ln>  (62) 
-1.0858

>  <r_i_glide_gscore>  (62) 
-4.22416

>  <r_i_glide_lipo>  (62) 
-0.37107

>  <r_i_glide_hbond>  (62) 
-0.226399

>  <r_i_glide_metal>  (62) 
-0

>  <r_i_glide_rewards>  (62) 
-1.7983

>  <r_i_glide_evdw>  (62) 
-21.5666

>  <r_i_glide_ecoul>  (62) 
-4.63201

>  <r_i_glide_erotb>  (62) 
0

>  <r_i_glide_esite>  (62) 
-0.0552577

>  <r_i_glide_emodel>  (62) 
-36.9097

>  <r_i_glide_energy>  (62) 
-26.1986

>  <r_i_glide_einternal>  (62) 
0

>  <r_i_glide_intrahb_reward>  (62) 
-0

>  <i_i_glide_confnum>  (62) 
2

>  <i_i_glide_posenum>  (62) 
23

>  <r_i_glide_eff_state_penalty>  (62) 
0

>  <ligand_id>  (62) 
20

>  <original_smiles>  (62) 
N=c1c2ccccc2[nH]c2oc3ncccc3c12

>  <smiles>  (62) 
[H]c1nc2oc3c(c(=[N+]([H])[H])c4c([H])c([H])c([H])c([H])c4n3[H])c2c([H])c1[H]

$$$$
20:1:2
     RDKit          3D

 28 31  0  0  1  0  0  0  0  0999 V2000
    4.6907   -0.2815    0.5169 N   0  0  0  0  0  0  0  0  0  0  0  0
    4.0934   -1.3546    0.1079 C   0  0  0  0  0  0  0  0  0  0  0  0
    3.8050   -1.6226   -1.3243 C   0  0  0  0  0  0  0  0  0  0  0  0
    4.2247   -0.7340   -2.3327 C   0  0  0  0  0  0  0  0  0  0  0  0
    3.9629   -1.0061   -3.6843 C   0  0  0  0  0  0  0  0  0  0  0  0
    3.2937   -2.1936   -4.0286 C   0  0  0  0  0  0  0  0  0  0  0  0
    2.8646   -3.0920   -3.0415 C   0  0  0  0  0  0  0  0  0  0  0  0
    3.1213   -2.8282   -1.6852 C   0  0  0  0  0  0  0  0  0  0  0  0
    2.7212   -3.7575   -0.7109 N   0  0  0  0  0  0  0  0  0  0  0  0
    3.0061   -3.4814    0.6155 C   0  0  0  0  0  0  0  0  0  0  0  0
    2.6377   -4.3120    1.6308 O   0  0  0  0  0  0  0  0  0  0  0  0
    3.0774   -3.7039    2.8033 C   0  0  0  0  0  0  0  0  0  0  0  0
    2.8999   -4.2403    4.0439 N   0  0  0  0  0  0  0  0  0  0  0  0
    3.4020   -3.4984    5.0548 C   0  0  0  0  0  0  0  0  0  0  0  0
    4.0521   -2.2548    4.8875 C   0  0  0  0  0  0  0  0  0  0  0  0
    4.2093   -1.7303    3.5899 C   0  0  0  0  0  0  0  0  0  0  0  0
    3.7180   -2.4637    2.4901 C   0  0  0  0  0  0  0  0  0  0  0  0
    3.6438   -2.3693    1.0651 C   0  0  0  0  0  0  0  0  0  0  0  0
    2.2983   -4.6171   -1.0283 H   0  0  0  0  0  0  0  0  0  0  0  0
    4.8106   -0.1438    1.5147 H   0  0  0  0  0  0  0  0  0  0  0  0
    4.7609    0.1540   -2.0736 H   0  0  0  0  0  0  0  0  0  0  0  0
    4.2719   -0.3118   -4.4469 H   0  0  0  0  0  0  0  0  0  0  0  0
    3.0850   -2.4306   -5.0559 H   0  0  0  0  0  0  0  0  0  0  0  0
    2.3463   -3.9977   -3.3320 H   0  0  0  0  0  0  0  0  0  0  0  0
    3.2777   -3.9133    6.0458 H   0  0  0  0  0  0  0  0  0  0  0  0
    4.4266   -1.7100    5.7382 H   0  0  0  0  0  0  0  0  0  0  0  0
    4.7015   -0.7817    3.4383 H   0  0  0  0  0  0  0  0  0  0  0  0
    4.9948    0.4633   -0.1174 H   0  0  0  0  0  0  0  0  0  0  0  0
  1  2  2  3
  1 20  1  0
  1 28  1  0
  2 18  1  0
  2  3  1  0
  3  8  2  0
  3  4  1  0
  4  5  2  0
  4 21  1  0
  5  6  1  0
  5 22  1  0
  6  7  2  0
  6 23  1  0
  7  8  1  0
  7 24  1  0
  8  9  1  0
  9 19  1  0
  9 10  1  0
 10 18  2  0
 10 11  1  0
 11 12  1  0
 12 17  2  0
 12 13  1  0
 13 14  2  0
 14 15  1  0
 14 25  1  0
 15 16  2  0
 15 26  1  0
 16 17  1  0
 16 27  1  0
 17 18  1  0
M  CHG  1   1   1
M  END
>  <i_m_ct_stereo_status>  (63) 
1

>  <s_m_source_file>  (63) 
/var/tmp/pbs.5083858.sched01/tmpza6kqm8b/25fbxx885r.sdf

>  <i_m_source_file_index>  (63) 
4

>  <i_lp_mmshare_version>  (63) 
48012

>  <i_f3d_flags>  (63) 
0

>  <s_epik_input>  (63) 
W2NIXTFbY0hdW2NIXW5jKG8yKWMxYyhjXDM9TlxbSF0pYzJbbkhdYyhjMzQpW2NIXVtjSF1bY0hdW2NIXTQ=

>  <s_epik_cmdline>  (63) 
J2VwaWtfcHl0aG9uJywgJy1waHQnLCAnMi4wJywgJy1waCcsICc3LjAnLCAnLXRuJywgJzgnLCAnLW1hJywgJzIwMCcsICctaW1hZScsICc8aW5maWxlLm1hZT4nLCAnLW9tYWUnLCAnPG91dGZpbGUubWFlPic=

>  <r_epik_Ionization_Penalty>  (63) 
0.00590658

>  <r_epik_Ionization_Penalty_Charging>  (63) 
5.18968e-05

>  <r_epik_Ionization_Penalty_Neutral>  (63) 
0.00585468

>  <r_epik_State_Penalty>  (63) 
1.77534

>  <r_epik_Charging_Adjusted_Penalty>  (63) 
1.77539

>  <i_epik_Tot_Q>  (63) 
1

>  <i_epik_Tot_abs_Q>  (63) 
1

>  <s_epik_Chemistry_Notes>  (63) 
This compound has an imine and may undergo hydrolysis.

>  <s_lp_Force_Field>  (63) 
OPLS3e

>  <r_lp_Energy>  (63) 
35.4363

>  <b_lp_Chiralities_Consistent>  (63) 
1

>  <s_lp_Variant>  (63) 
20:0-2

>  <s_i_glide_gridfile>  (63) 
pfpi4k_grid

>  <i_i_glide_lignum>  (63) 
4

>  <i_i_glide_rotatable_bonds>  (63) 
0

>  <r_i_docking_score>  (63) 
-4.09209

>  <r_i_glide_ligand_efficiency>  (63) 
-0.227339

>  <r_i_glide_ligand_efficiency_sa>  (63) 
-0.595796

>  <r_i_glide_ligand_efficiency_ln>  (63) 
-1.05185

>  <r_i_glide_gscore>  (63) 
-4.09209

>  <r_i_glide_lipo>  (63) 
-0.342519

>  <r_i_glide_hbond>  (63) 
-0.0874455

>  <r_i_glide_metal>  (63) 
-0

>  <r_i_glide_rewards>  (63) 
-1.7983

>  <r_i_glide_evdw>  (63) 
-18.67

>  <r_i_glide_ecoul>  (63) 
-6.01584

>  <r_i_glide_erotb>  (63) 
0

>  <r_i_glide_esite>  (63) 
-0.0279487

>  <r_i_glide_emodel>  (63) 
-35.0457

>  <r_i_glide_energy>  (63) 
-24.6858

>  <r_i_glide_einternal>  (63) 
0

>  <r_i_glide_intrahb_reward>  (63) 
-0

>  <i_i_glide_confnum>  (63) 
2

>  <i_i_glide_posenum>  (63) 
22

>  <r_i_glide_eff_state_penalty>  (63) 
0

>  <ligand_id>  (63) 
20

>  <original_smiles>  (63) 
N=c1c2ccccc2[nH]c2oc3ncccc3c12

>  <smiles>  (63) 
[H]c1nc2oc3c(c(=[N+]([H])[H])c4c([H])c([H])c([H])c([H])c4n3[H])c2c([H])c1[H]

$$$$
21:0:0
     RDKit          3D

 99105  0  0  1  0  0  0  0  0999 V2000
    4.8426    2.8228    7.1089 C   0  0  0  0  0  0  0  0  0  0  0  0
    4.2441    3.1776    5.7610 C   0  0  0  0  0  0  0  0  0  0  0  0
    4.4208    4.2906    5.2769 O   0  0  0  0  0  0  0  0  0  0  0  0
    3.5465    2.1534    5.2166 O   0  0  0  0  0  0  0  0  0  0  0  0
    3.0351    2.2045    3.8835 C   0  0  2  0  0  0  0  0  0  0  0  0
    1.8045    3.1479    3.8999 C   0  0  0  0  0  0  0  0  0  0  0  0
    0.6577    2.5247    4.7259 C   0  0  1  0  0  0  0  0  0  0  0  0
   -0.4562    3.5057    5.2442 C   0  0  2  0  0  0  0  0  0  0  0  0
   -1.2408    4.1321    4.0687 C   0  0  0  0  0  0  0  0  0  0  0  0
    0.1208    4.7279    6.0101 C   0  0  0  0  0  0  0  0  0  0  0  0
    0.6959    4.4026    7.3836 C   0  0  0  0  0  0  0  0  0  0  0  0
   -0.4048    3.8664    8.3010 C   0  0  1  0  0  0  0  0  0  0  0  0
   -1.3395    4.8992    8.5287 O   0  0  0  0  0  0  0  0  0  0  0  0
   -1.0776    2.5864    7.7295 C   0  0  0  0  0  0  0  0  0  0  0  0
   -0.1543    1.3942    8.0721 C   0  0  0  0  0  0  0  0  0  0  0  0
   -2.3713    2.3234    8.5396 C   0  0  0  0  0  0  0  0  0  0  0  0
   -1.4424    2.7343    6.1902 C   0  0  2  0  0  0  0  0  0  0  0  0
   -1.9353    1.4366    5.5105 C   0  0  0  0  0  0  0  0  0  0  0  0
   -0.8378    0.5078    4.9731 C   0  0  0  0  0  0  0  0  0  0  0  0
    0.1799    1.2059    4.0449 C   0  0  1  0  0  0  0  0  0  0  0  0
   -0.4986    1.4140    2.6547 C   0  0  0  0  0  0  0  0  0  0  0  0
    1.3943    0.2403    3.8387 C   0  0  2  0  0  0  0  0  0  0  0  0
    1.8593   -0.3395    5.0516 O   0  0  0  0  0  0  0  0  0  0  0  0
    3.0582   -1.1059    4.8433 C   0  0  2  0  0  0  0  0  0  0  0  0
    4.0458   -0.7438    5.9976 C   0  0  1  0  0  0  0  0  0  0  0  0
    4.1538   -1.6494    7.0748 O   0  0  0  0  0  0  0  0  0  0  0  0
    5.2620   -0.5180    5.3035 O   0  0  0  0  0  0  0  0  0  0  0  0
    4.8947    0.1937    4.0307 O   0  0  0  0  0  0  0  0  0  0  0  0
    3.6845   -0.4033    3.5973 C   0  0  1  0  0  0  0  0  0  0  0  0
    4.0644   -1.4003    2.4425 C   0  0  1  0  0  0  0  0  0  0  0  0
    5.4092   -2.1659    2.5358 C   0  0  0  0  0  0  0  0  0  0  0  0
    5.2175   -3.5050    1.7873 C   0  0  1  0  0  0  0  0  0  0  0  0
    5.2537   -4.5481    2.7303 O   0  0  0  0  0  0  0  0  0  0  0  0
    3.8389   -3.4257    1.0932 C   0  0  0  0  0  0  0  0  0  0  0  0
    4.0291   -2.7438   -0.2879 C   0  0  0  0  0  0  0  0  0  0  0  0
    3.2228   -4.8027    0.7254 C   0  0  0  0  0  0  0  0  0  0  0  0
    3.0166   -2.4708    2.0278 C   0  0  1  0  0  0  0  0  0  0  0  0
    2.2234   -3.0294    3.2604 C   0  0  1  0  0  0  0  0  0  0  0  0
    1.9075   -4.3976    3.2131 O   0  0  0  0  0  0  0  0  0  0  0  0
    2.7273   -2.6490    4.6872 C   0  0  1  0  0  0  0  0  0  0  0  0
    3.8951   -3.4002    4.9342 O   0  0  0  0  0  0  0  0  0  0  0  0
    1.7301   -3.1462    5.7900 C   0  0  0  0  0  0  0  0  0  0  0  0
    0.4387   -2.5893    5.6836 O   0  0  0  0  0  0  0  0  0  0  0  0
    2.7018    0.7903    3.2412 C   0  0  2  0  0  0  0  0  0  0  0  0
    2.5805    1.0267    1.7118 C   0  0  0  0  0  0  0  0  0  0  0  0
    4.0777    2.4008    7.7577 H   0  0  0  0  0  0  0  0  0  0  0  0
    5.2532    3.7166    7.5792 H   0  0  0  0  0  0  0  0  0  0  0  0
    5.6444    2.0959    6.9774 H   0  0  0  0  0  0  0  0  0  0  0  0
    3.8121    2.6773    3.2925 H   0  0  0  0  0  0  0  0  0  0  0  0
    2.0969    4.1064    4.3075 H   0  0  0  0  0  0  0  0  0  0  0  0
    1.5019    3.3919    2.8867 H   0  0  0  0  0  0  0  0  0  0  0  0
    1.1471    2.1945    5.6339 H   0  0  0  0  0  0  0  0  0  0  0  0
   -1.8921    4.9337    4.4151 H   0  0  0  0  0  0  0  0  0  0  0  0
   -1.9012    3.4475    3.5538 H   0  0  0  0  0  0  0  0  0  0  0  0
   -0.5797    4.5625    3.3163 H   0  0  0  0  0  0  0  0  0  0  0  0
    0.8555    5.2749    5.4271 H   0  0  0  0  0  0  0  0  0  0  0  0
   -0.6685    5.4637    6.1582 H   0  0  0  0  0  0  0  0  0  0  0  0
    1.5088    3.6822    7.2982 H   0  0  0  0  0  0  0  0  0  0  0  0
    1.1311    5.2990    7.8226 H   0  0  0  0  0  0  0  0  0  0  0  0
    0.0454    3.6419    9.2707 H   0  0  0  0  0  0  0  0  0  0  0  0
   -1.8731    4.6501    9.2772 H   0  0  0  0  0  0  0  0  0  0  0  0
   -0.6269    0.4338    7.8719 H   0  0  0  0  0  0  0  0  0  0  0  0
    0.0899    1.3801    9.1363 H   0  0  0  0  0  0  0  0  0  0  0  0
    0.7945    1.4277    7.5431 H   0  0  0  0  0  0  0  0  0  0  0  0
   -2.7810    1.3465    8.3042 H   0  0  0  0  0  0  0  0  0  0  0  0
   -3.1506    3.0577    8.3270 H   0  0  0  0  0  0  0  0  0  0  0  0
   -2.1903    2.3463    9.6182 H   0  0  0  0  0  0  0  0  0  0  0  0
   -2.3297    3.3661    6.2288 H   0  0  0  0  0  0  0  0  0  0  0  0
   -2.5695    0.8628    6.1769 H   0  0  0  0  0  0  0  0  0  0  0  0
   -2.5831    1.7095    4.6812 H   0  0  0  0  0  0  0  0  0  0  0  0
   -0.3259    0.0364    5.8038 H   0  0  0  0  0  0  0  0  0  0  0  0
   -1.3114   -0.3109    4.4283 H   0  0  0  0  0  0  0  0  0  0  0  0
   -0.3166    0.5980    1.9543 H   0  0  0  0  0  0  0  0  0  0  0  0
   -0.1814    2.3242    2.1474 H   0  0  0  0  0  0  0  0  0  0  0  0
   -1.5841    1.4798    2.7202 H   0  0  0  0  0  0  0  0  0  0  0  0
    1.0547   -0.5674    3.2007 H   0  0  0  0  0  0  0  0  0  0  0  0
    3.7378    0.1839    6.4759 H   0  0  0  0  0  0  0  0  0  0  0  0
    4.4100   -2.4911    6.7009 H   0  0  0  0  0  0  0  0  0  0  0  0
    4.2521   -0.7859    1.5684 H   0  0  0  0  0  0  0  0  0  0  0  0
    6.1973   -1.5898    2.0484 H   0  0  0  0  0  0  0  0  0  0  0  0
    5.7671   -2.3195    3.5536 H   0  0  0  0  0  0  0  0  0  0  0  0
    6.0119   -3.6968    1.0616 H   0  0  0  0  0  0  0  0  0  0  0  0
    6.1564   -4.6653    3.0197 H   0  0  0  0  0  0  0  0  0  0  0  0
    3.0658   -2.5311   -0.7590 H   0  0  0  0  0  0  0  0  0  0  0  0
    4.5835   -3.3820   -0.9774 H   0  0  0  0  0  0  0  0  0  0  0  0
    4.5826   -1.8076   -0.2479 H   0  0  0  0  0  0  0  0  0  0  0  0
    2.1843   -4.6876    0.4146 H   0  0  0  0  0  0  0  0  0  0  0  0
    3.2519   -5.5344    1.5291 H   0  0  0  0  0  0  0  0  0  0  0  0
    3.7468   -5.2765   -0.1045 H   0  0  0  0  0  0  0  0  0  0  0  0
    2.2589   -2.0026    1.4043 H   0  0  0  0  0  0  0  0  0  0  0  0
    1.2281   -2.5952    3.1806 H   0  0  0  0  0  0  0  0  0  0  0  0
    2.7167   -4.8881    3.3059 H   0  0  0  0  0  0  0  0  0  0  0  0
    4.4967   -3.2903    4.1949 H   0  0  0  0  0  0  0  0  0  0  0  0
    1.6314   -4.2346    5.7496 H   0  0  0  0  0  0  0  0  0  0  0  0
    2.0878   -2.9435    6.7972 H   0  0  0  0  0  0  0  0  0  0  0  0
    0.5505   -1.6435    5.6662 H   0  0  0  0  0  0  0  0  0  0  0  0
    2.1879    0.1675    1.1713 H   0  0  0  0  0  0  0  0  0  0  0  0
    3.5519    1.2751    1.2946 H   0  0  0  0  0  0  0  0  0  0  0  0
    1.9219    1.8512    1.4644 H   0  0  0  0  0  0  0  0  0  0  0  0
  1  2  1  0
  1 46  1  0
  1 47  1  0
  1 48  1  0
  2  3  2  0
  2  4  1  0
  4  5  1  0
  5 44  1  0
  5  6  1  0
  5 49  1  6
  6  7  1  0
  6 50  1  0
  6 51  1  0
  7 20  1  0
  7  8  1  0
  7 52  1  1
  8 17  1  0
  8  9  1  6
  8 10  1  0
  9 53  1  0
  9 54  1  0
  9 55  1  0
 10 11  1  0
 10 56  1  0
 10 57  1  0
 11 12  1  0
 11 58  1  0
 11 59  1  0
 12 13  1  0
 12 14  1  0
 12 60  1  1
 13 61  1  0
 14 15  1  0
 14 16  1  0
 14 17  1  0
 15 62  1  0
 15 63  1  0
 15 64  1  0
 16 65  1  0
 16 66  1  0
 16 67  1  0
 17 18  1  0
 17 68  1  1
 18 19  1  0
 18 69  1  0
 18 70  1  0
 19 20  1  0
 19 71  1  0
 19 72  1  0
 20 21  1  6
 20 22  1  0
 21 73  1  0
 21 74  1  0
 21 75  1  0
 22 44  1  0
 22 23  1  0
 22 76  1  6
 24 23  1  1
 24 29  1  0
 24 40  1  0
 24 25  1  0
 25 26  1  0
 25 27  1  0
 25 77  1  1
 26 78  1  0
 27 28  1  0
 29 28  1  1
 29 30  1  0
 29 44  1  0
 30 37  1  0
 30 31  1  0
 30 79  1  6
 31 32  1  0
 31 80  1  0
 31 81  1  0
 32 33  1  0
 32 34  1  0
 32 82  1  6
 33 83  1  0
 34 35  1  0
 34 36  1  0
 34 37  1  0
 35 84  1  0
 35 85  1  0
 35 86  1  0
 36 87  1  0
 36 88  1  0
 36 89  1  0
 37 38  1  0
 37 90  1  6
 38 39  1  0
 38 40  1  0
 38 91  1  6
 39 92  1  0
 40 41  1  1
 40 42  1  0
 41 93  1  0
 42 43  1  0
 42 94  1  0
 42 95  1  0
 43 96  1  0
 44 45  1  6
 45 97  1  0
 45 98  1  0
 45 99  1  0
M  END
>  <i_m_ct_stereo_status>  (64) 
1

>  <s_m_source_file>  (64) 
/var/tmp/pbs.5083858.sched01/tmpza6kqm8b/25fbxx885r.sdf

>  <i_m_source_file_index>  (64) 
5

>  <i_lp_mmshare_version>  (64) 
48012

>  <i_f3d_flags>  (64) 
0

>  <s_epik_input>  (64) 
W0NIMl0xW0NIMl1bQ0BASF0oW09IXSlDKFtDSDNdKShbQ0gzXSlbQ0BIXShbQ0gyXVtDSDJdMilbQ0BdMShbQ0gzXSlbQ0BIXShbQ0gyXVtDQEhdM09DKD1PKVtDSDNdKVtDQEBdMihbQ0gzXSlbQ0BIXShPNClbQ0BdMyhbQ0gzXSlbQ0BdKFtDQF00NTYpKE9PW0NAQEhdNVtPSF0pW0NAQEhdN1tDQEBIXShDKFtDSDNdKShbQ0gzXSlbQ0BASF0oW0NIMl03KVtPSF0pW0NAQEhdKFtPSF0pW0NAXTYoW09IXSlbQ0gyXVtPSF0=

>  <s_epik_cmdline>  (64) 
J2VwaWtfcHl0aG9uJywgJy1waHQnLCAnMi4wJywgJy1waCcsICc3LjAnLCAnLXRuJywgJzgnLCAnLW1hJywgJzIwMCcsICctaW1hZScsICc8aW5maWxlLm1hZT4nLCAnLW9tYWUnLCAnPG91dGZpbGUubWFlPic=

>  <r_lp_tautomer_probability>  (64) 
1

>  <r_epik_Ionization_Penalty>  (64) 
5.13848e-05

>  <r_epik_Ionization_Penalty_Charging>  (64) 
0

>  <r_epik_Ionization_Penalty_Neutral>  (64) 
5.13848e-05

>  <r_epik_State_Penalty>  (64) 
-0

>  <r_epik_Charging_Adjusted_Penalty>  (64) 
0

>  <i_epik_Tot_Q>  (64) 
0

>  <i_epik_Tot_abs_Q>  (64) 
0

>  <s_epik_Chemistry_Notes>  (64) 
This compound has an ester and may undergo hydrolysis at high or low pH. This compound contains an acetal/aminal-like group ( X-CH(R)-Y where X, Y are N, S, or O) that may be acid/base labile, releasing an aldehyde.

>  <s_lp_Force_Field>  (64) 
OPLS3e

>  <r_lp_Energy>  (64) 
109.427

>  <b_lp_Chiralities_Consistent>  (64) 
1

>  <s_lp_Variant>  (64) 
21:0-1

>  <s_i_glide_gridfile>  (64) 
pfpi4k_grid

>  <i_i_glide_lignum>  (64) 
5

>  <i_i_glide_rotatable_bonds>  (64) 
9

>  <r_i_docking_score>  (64) 
-3.21248

>  <r_i_glide_ligand_efficiency>  (64) 
-0.0713884

>  <r_i_glide_ligand_efficiency_sa>  (64) 
-0.253921

>  <r_i_glide_ligand_efficiency_ln>  (64) 
-0.668339

>  <r_i_glide_gscore>  (64) 
-3.21248

>  <r_i_glide_lipo>  (64) 
-0.157507

>  <r_i_glide_hbond>  (64) 
0

>  <r_i_glide_metal>  (64) 
-0

>  <r_i_glide_rewards>  (64) 
-1.50064

>  <r_i_glide_evdw>  (64) 
-26.5667

>  <r_i_glide_ecoul>  (64) 
-2.19883

>  <r_i_glide_erotb>  (64) 
0.10383

>  <r_i_glide_esite>  (64) 
0

>  <r_i_glide_emodel>  (64) 
-48.7068

>  <r_i_glide_energy>  (64) 
-28.7655

>  <r_i_glide_einternal>  (64) 
1.70697

>  <r_i_glide_intrahb_reward>  (64) 
-1.5

>  <i_i_glide_confnum>  (64) 
3

>  <i_i_glide_posenum>  (64) 
4

>  <r_i_glide_eff_state_penalty>  (64) 
0

>  <ligand_id>  (64) 
21

>  <original_smiles>  (64) 
CC(=O)OC1CC2C3(C)CCC(O)C(C)(C)C3CCC2(C)C2OC34C(O)OOC3(C3CC(O)C(C)(C)C3C(O)C4(O)CO)C12C

>  <smiles>  (64) 
[H]OC([H])([H])C1(O[H])C([H])(O[H])C2([H])C([H])(C([H])([H])C([H])(O[H])C2(C([H])([H])[H])C([H])([H])[H])C23OOC([H])(O[H])C12OC1([H])C2(C([H])([H])[H])C([H])([H])C([H])([H])C4([H])C(C([H])([H])[H])(C([H])([H])[H])C([H])(O[H])C([H])([H])C([H])([H])C4(C([H])([H])[H])C2([H])C([H])([H])C([H])(OC(=O)C([H])([H])[H])C13C([H])([H])[H]

$$$$
21:0:1
     RDKit          3D

 99105  0  0  1  0  0  0  0  0999 V2000
    5.2168    0.7442    7.4309 C   0  0  0  0  0  0  0  0  0  0  0  0
    5.2000    0.8567    5.9143 C   0  0  0  0  0  0  0  0  0  0  0  0
    6.2450    0.9530    5.2734 O   0  0  0  0  0  0  0  0  0  0  0  0
    3.9468    0.7588    5.3994 O   0  0  0  0  0  0  0  0  0  0  0  0
    3.6905    0.8579    3.9925 C   0  0  2  0  0  0  0  0  0  0  0  0
    2.7206    2.0604    3.8749 C   0  0  0  0  0  0  0  0  0  0  0  0
    1.3111    1.7121    4.4373 C   0  0  1  0  0  0  0  0  0  0  0  0
    0.3435    2.9144    4.7839 C   0  0  2  0  0  0  0  0  0  0  0  0
   -0.0632    3.7090    3.5165 C   0  0  0  0  0  0  0  0  0  0  0  0
    1.0231    3.9807    5.6849 C   0  0  0  0  0  0  0  0  0  0  0  0
    1.2523    3.5303    7.1242 C   0  0  0  0  0  0  0  0  0  0  0  0
   -0.0887    3.2509    7.8037 C   0  0  1  0  0  0  0  0  0  0  0  0
   -0.7966    4.4726    7.9159 O   0  0  0  0  0  0  0  0  0  0  0  0
   -0.9216    2.1513    7.0738 C   0  0  0  0  0  0  0  0  0  0  0  0
   -0.3459    0.7853    7.5188 C   0  0  0  0  0  0  0  0  0  0  0  0
   -2.3700    2.1824    7.6275 C   0  0  0  0  0  0  0  0  0  0  0  0
   -0.9575    2.3821    5.4997 C   0  0  2  0  0  0  0  0  0  0  0  0
   -1.5890    1.2234    4.6896 C   0  0  0  0  0  0  0  0  0  0  0  0
   -0.6236    0.0876    4.3069 C   0  0  0  0  0  0  0  0  0  0  0  0
    0.6836    0.5414    3.6095 C   0  0  1  0  0  0  0  0  0  0  0  0
    0.3234    0.9065    2.1364 C   0  0  0  0  0  0  0  0  0  0  0  0
    1.6787   -0.6697    3.5893 C   0  0  2  0  0  0  0  0  0  0  0  0
    1.7866   -1.3372    4.8379 O   0  0  0  0  0  0  0  0  0  0  0  0
    2.7919   -2.3610    4.8083 C   0  0  2  0  0  0  0  0  0  0  0  0
    3.5899   -2.2336    6.1287 C   0  0  1  0  0  0  0  0  0  0  0  0
    3.3122   -3.1403    7.1778 O   0  0  0  0  0  0  0  0  0  0  0  0
    4.9253   -2.3186    5.6711 O   0  0  0  0  0  0  0  0  0  0  0  0
    4.9867   -1.5681    4.3852 O   0  0  0  0  0  0  0  0  0  0  0  0
    3.7694   -1.8205    3.7190 C   0  0  1  0  0  0  0  0  0  0  0  0
    4.1234   -2.8715    2.6137 C   0  0  1  0  0  0  0  0  0  0  0  0
    5.2291   -3.9182    2.9106 C   0  0  0  0  0  0  0  0  0  0  0  0
    4.8950   -5.1766    2.0871 C   0  0  1  0  0  0  0  0  0  0  0  0
    4.5280   -6.2091    2.9728 O   0  0  0  0  0  0  0  0  0  0  0  0
    3.7161   -4.7874    1.1677 C   0  0  0  0  0  0  0  0  0  0  0  0
    4.3017   -4.1607   -0.1290 C   0  0  0  0  0  0  0  0  0  0  0  0
    2.8896   -5.9902    0.6438 C   0  0  0  0  0  0  0  0  0  0  0  0
    2.9581   -3.6769    1.9839 C   0  0  1  0  0  0  0  0  0  0  0  0
    1.8517   -4.0433    3.0394 C   0  0  1  0  0  0  0  0  0  0  0  0
    1.2551   -5.3122    2.8731 O   0  0  0  0  0  0  0  0  0  0  0  0
    2.1607   -3.7886    4.5455 C   0  0  1  0  0  0  0  0  0  0  0  0
    3.0754   -4.7961    4.9509 O   0  0  0  0  0  0  0  0  0  0  0  0
    0.9045   -4.0668    5.4416 C   0  0  0  0  0  0  0  0  0  0  0  0
   -0.1812   -3.1887    5.2233 O   0  0  0  0  0  0  0  0  0  0  0  0
    3.1602   -0.4352    3.2485 C   0  0  2  0  0  0  0  0  0  0  0  0
    3.3691   -0.1635    1.7325 C   0  0  0  0  0  0  0  0  0  0  0  0
    4.5307    1.4588    7.8867 H   0  0  0  0  0  0  0  0  0  0  0  0
    6.2235    0.9196    7.8096 H   0  0  0  0  0  0  0  0  0  0  0  0
    4.9237   -0.2632    7.7269 H   0  0  0  0  0  0  0  0  0  0  0  0
    4.6149    1.1424    3.4893 H   0  0  0  0  0  0  0  0  0  0  0  0
    3.1776    2.8777    4.4267 H   0  0  0  0  0  0  0  0  0  0  0  0
    2.6706    2.4040    2.8411 H   0  0  0  0  0  0  0  0  0  0  0  0
    1.5230    1.2746    5.4057 H   0  0  0  0  0  0  0  0  0  0  0  0
   -0.5742    4.6384    3.7636 H   0  0  0  0  0  0  0  0  0  0  0  0
   -0.7586    3.1807    2.8756 H   0  0  0  0  0  0  0  0  0  0  0  0
    0.8020    3.9750    2.9109 H   0  0  0  0  0  0  0  0  0  0  0  0
    1.9532    4.3425    5.2540 H   0  0  0  0  0  0  0  0  0  0  0  0
    0.3933    4.8703    5.7166 H   0  0  0  0  0  0  0  0  0  0  0  0
    1.8929    2.6505    7.1528 H   0  0  0  0  0  0  0  0  0  0  0  0
    1.7869    4.3054    7.6678 H   0  0  0  0  0  0  0  0  0  0  0  0
    0.1051    2.9267    8.8294 H   0  0  0  0  0  0  0  0  0  0  0  0
   -0.3166    5.0365    8.5017 H   0  0  0  0  0  0  0  0  0  0  0  0
   -0.9700   -0.0457    7.1929 H   0  0  0  0  0  0  0  0  0  0  0  0
   -0.3085    0.7174    8.6097 H   0  0  0  0  0  0  0  0  0  0  0  0
    0.6714    0.6151    7.1684 H   0  0  0  0  0  0  0  0  0  0  0  0
   -2.9600    1.3309    7.2878 H   0  0  0  0  0  0  0  0  0  0  0  0
   -2.9010    3.0840    7.3157 H   0  0  0  0  0  0  0  0  0  0  0  0
   -2.3729    2.1669    8.7202 H   0  0  0  0  0  0  0  0  0  0  0  0
   -1.6666    3.2047    5.4043 H   0  0  0  0  0  0  0  0  0  0  0  0
   -2.4197    0.7844    5.2263 H   0  0  0  0  0  0  0  0  0  0  0  0
   -2.0437    1.6261    3.7882 H   0  0  0  0  0  0  0  0  0  0  0  0
   -0.3840   -0.4757    5.1992 H   0  0  0  0  0  0  0  0  0  0  0  0
   -1.1545   -0.6234    3.6795 H   0  0  0  0  0  0  0  0  0  0  0  0
    0.4482    0.0692    1.4507 H   0  0  0  0  0  0  0  0  0  0  0  0
    0.9193    1.7260    1.7396 H   0  0  0  0  0  0  0  0  0  0  0  0
   -0.7201    1.2024    2.0187 H   0  0  0  0  0  0  0  0  0  0  0  0
    1.2765   -1.3809    2.8821 H   0  0  0  0  0  0  0  0  0  0  0  0
    3.3959   -1.2575    6.5656 H   0  0  0  0  0  0  0  0  0  0  0  0
    3.4674   -4.0181    6.8482 H   0  0  0  0  0  0  0  0  0  0  0  0
    4.5932   -2.3073    1.8164 H   0  0  0  0  0  0  0  0  0  0  0  0
    6.1931   -3.5256    2.5813 H   0  0  0  0  0  0  0  0  0  0  0  0
    5.3614   -4.1526    3.9679 H   0  0  0  0  0  0  0  0  0  0  0  0
    5.7552   -5.5288    1.5107 H   0  0  0  0  0  0  0  0  0  0  0  0
    4.4168   -6.9989    2.4656 H   0  0  0  0  0  0  0  0  0  0  0  0
    3.5139   -3.7388   -0.7567 H   0  0  0  0  0  0  0  0  0  0  0  0
    4.8236   -4.9066   -0.7332 H   0  0  0  0  0  0  0  0  0  0  0  0
    5.0326   -3.3746    0.0539 H   0  0  0  0  0  0  0  0  0  0  0  0
    1.9788   -5.6477    0.1499 H   0  0  0  0  0  0  0  0  0  0  0  0
    2.6061   -6.7079    1.4085 H   0  0  0  0  0  0  0  0  0  0  0  0
    3.4593   -6.5604   -0.0868 H   0  0  0  0  0  0  0  0  0  0  0  0
    2.4490   -3.0517    1.2561 H   0  0  0  0  0  0  0  0  0  0  0  0
    1.0119   -3.3921    2.8180 H   0  0  0  0  0  0  0  0  0  0  0  0
    1.8998   -5.9650    3.1091 H   0  0  0  0  0  0  0  0  0  0  0  0
    3.8197   -4.8213    4.3565 H   0  0  0  0  0  0  0  0  0  0  0  0
    0.5401   -5.0820    5.2796 H   0  0  0  0  0  0  0  0  0  0  0  0
    1.1321   -4.0276    6.5064 H   0  0  0  0  0  0  0  0  0  0  0  0
   -0.3685   -3.1757    4.2897 H   0  0  0  0  0  0  0  0  0  0  0  0
    2.9021   -0.9098    1.0922 H   0  0  0  0  0  0  0  0  0  0  0  0
    4.4300   -0.1266    1.4916 H   0  0  0  0  0  0  0  0  0  0  0  0
    2.9609    0.7893    1.4140 H   0  0  0  0  0  0  0  0  0  0  0  0
  1  2  1  0
  1 46  1  0
  1 47  1  0
  1 48  1  0
  2  3  2  0
  2  4  1  0
  4  5  1  0
  5 44  1  0
  5  6  1  0
  5 49  1  6
  6  7  1  0
  6 50  1  0
  6 51  1  0
  7 20  1  0
  7  8  1  0
  7 52  1  1
  8 17  1  0
  8  9  1  6
  8 10  1  0
  9 53  1  0
  9 54  1  0
  9 55  1  0
 10 11  1  0
 10 56  1  0
 10 57  1  0
 11 12  1  0
 11 58  1  0
 11 59  1  0
 12 13  1  0
 12 14  1  0
 12 60  1  1
 13 61  1  0
 14 15  1  0
 14 16  1  0
 14 17  1  0
 15 62  1  0
 15 63  1  0
 15 64  1  0
 16 65  1  0
 16 66  1  0
 16 67  1  0
 17 18  1  0
 17 68  1  1
 18 19  1  0
 18 69  1  0
 18 70  1  0
 19 20  1  0
 19 71  1  0
 19 72  1  0
 20 21  1  6
 20 22  1  0
 21 73  1  0
 21 74  1  0
 21 75  1  0
 22 44  1  0
 22 23  1  0
 22 76  1  6
 24 23  1  1
 24 29  1  0
 24 40  1  0
 24 25  1  0
 25 26  1  0
 25 27  1  0
 25 77  1  1
 26 78  1  0
 27 28  1  0
 29 28  1  1
 29 30  1  0
 29 44  1  0
 30 37  1  0
 30 31  1  0
 30 79  1  6
 31 32  1  0
 31 80  1  0
 31 81  1  0
 32 33  1  0
 32 34  1  0
 32 82  1  6
 33 83  1  0
 34 35  1  0
 34 36  1  0
 34 37  1  0
 35 84  1  0
 35 85  1  0
 35 86  1  0
 36 87  1  0
 36 88  1  0
 36 89  1  0
 37 38  1  0
 37 90  1  6
 38 39  1  0
 38 40  1  0
 38 91  1  6
 39 92  1  0
 40 41  1  1
 40 42  1  0
 41 93  1  0
 42 43  1  0
 42 94  1  0
 42 95  1  0
 43 96  1  0
 44 45  1  6
 45 97  1  0
 45 98  1  0
 45 99  1  0
M  END
>  <i_m_ct_stereo_status>  (65) 
1

>  <s_m_source_file>  (65) 
/var/tmp/pbs.5083858.sched01/tmpza6kqm8b/25fbxx885r.sdf

>  <i_m_source_file_index>  (65) 
5

>  <i_lp_mmshare_version>  (65) 
48012

>  <i_f3d_flags>  (65) 
0

>  <s_epik_input>  (65) 
W0NIMl0xW0NIMl1bQ0BASF0oW09IXSlDKFtDSDNdKShbQ0gzXSlbQ0BIXShbQ0gyXVtDSDJdMilbQ0BdMShbQ0gzXSlbQ0BIXShbQ0gyXVtDQEhdM09DKD1PKVtDSDNdKVtDQEBdMihbQ0gzXSlbQ0BIXShPNClbQ0BdMyhbQ0gzXSlbQ0BdKFtDQF00NTYpKE9PW0NAQEhdNVtPSF0pW0NAQEhdN1tDQEBIXShDKFtDSDNdKShbQ0gzXSlbQ0BASF0oW0NIMl03KVtPSF0pW0NAQEhdKFtPSF0pW0NAXTYoW09IXSlbQ0gyXVtPSF0=

>  <s_epik_cmdline>  (65) 
J2VwaWtfcHl0aG9uJywgJy1waHQnLCAnMi4wJywgJy1waCcsICc3LjAnLCAnLXRuJywgJzgnLCAnLW1hJywgJzIwMCcsICctaW1hZScsICc8aW5maWxlLm1hZT4nLCAnLW9tYWUnLCAnPG91dGZpbGUubWFlPic=

>  <r_lp_tautomer_probability>  (65) 
1

>  <r_epik_Ionization_Penalty>  (65) 
5.13848e-05

>  <r_epik_Ionization_Penalty_Charging>  (65) 
0

>  <r_epik_Ionization_Penalty_Neutral>  (65) 
5.13848e-05

>  <r_epik_State_Penalty>  (65) 
-0

>  <r_epik_Charging_Adjusted_Penalty>  (65) 
0

>  <i_epik_Tot_Q>  (65) 
0

>  <i_epik_Tot_abs_Q>  (65) 
0

>  <s_epik_Chemistry_Notes>  (65) 
This compound has an ester and may undergo hydrolysis at high or low pH. This compound contains an acetal/aminal-like group ( X-CH(R)-Y where X, Y are N, S, or O) that may be acid/base labile, releasing an aldehyde.

>  <s_lp_Force_Field>  (65) 
OPLS3e

>  <r_lp_Energy>  (65) 
109.427

>  <b_lp_Chiralities_Consistent>  (65) 
1

>  <s_lp_Variant>  (65) 
21:0-1

>  <s_i_glide_gridfile>  (65) 
pfpi4k_grid

>  <i_i_glide_lignum>  (65) 
5

>  <i_i_glide_rotatable_bonds>  (65) 
9

>  <r_i_docking_score>  (65) 
-3.21098

>  <r_i_glide_ligand_efficiency>  (65) 
-0.071355

>  <r_i_glide_ligand_efficiency_sa>  (65) 
-0.253802

>  <r_i_glide_ligand_efficiency_ln>  (65) 
-0.668026

>  <r_i_glide_gscore>  (65) 
-3.21098

>  <r_i_glide_lipo>  (65) 
-0.0548371

>  <r_i_glide_hbond>  (65) 
0

>  <r_i_glide_metal>  (65) 
-0

>  <r_i_glide_rewards>  (65) 
-1.03435

>  <r_i_glide_evdw>  (65) 
-26.6623

>  <r_i_glide_ecoul>  (65) 
-5.95002

>  <r_i_glide_erotb>  (65) 
0.10383

>  <r_i_glide_esite>  (65) 
0

>  <r_i_glide_emodel>  (65) 
-47.025

>  <r_i_glide_energy>  (65) 
-32.6123

>  <r_i_glide_einternal>  (65) 
2.0988

>  <r_i_glide_intrahb_reward>  (65) 
-1

>  <i_i_glide_confnum>  (65) 
2

>  <i_i_glide_posenum>  (65) 
16

>  <r_i_glide_eff_state_penalty>  (65) 
0

>  <ligand_id>  (65) 
21

>  <original_smiles>  (65) 
CC(=O)OC1CC2C3(C)CCC(O)C(C)(C)C3CCC2(C)C2OC34C(O)OOC3(C3CC(O)C(C)(C)C3C(O)C4(O)CO)C12C

>  <smiles>  (65) 
[H]OC([H])([H])C1(O[H])C([H])(O[H])C2([H])C([H])(C([H])([H])C([H])(O[H])C2(C([H])([H])[H])C([H])([H])[H])C23OOC([H])(O[H])C12OC1([H])C2(C([H])([H])[H])C([H])([H])C([H])([H])C4([H])C(C([H])([H])[H])(C([H])([H])[H])C([H])(O[H])C([H])([H])C([H])([H])C4(C([H])([H])[H])C2([H])C([H])([H])C([H])(OC(=O)C([H])([H])[H])C13C([H])([H])[H]

$$$$
21:0:2
     RDKit          3D

 99105  0  0  1  0  0  0  0  0999 V2000
    4.8999    1.2642    7.6639 C   0  0  0  0  0  0  0  0  0  0  0  0
    4.6003    1.7899    6.2698 C   0  0  0  0  0  0  0  0  0  0  0  0
    5.0305    2.8784    5.9025 O   0  0  0  0  0  0  0  0  0  0  0  0
    3.8255    0.9487    5.5495 O   0  0  0  0  0  0  0  0  0  0  0  0
    3.5564    1.1510    4.1611 C   0  0  2  0  0  0  0  0  0  0  0  0
    2.5408    2.3209    4.0481 C   0  0  0  0  0  0  0  0  0  0  0  0
    1.1631    1.9155    4.6282 C   0  0  1  0  0  0  0  0  0  0  0  0
    0.1759    3.0799    5.0158 C   0  0  2  0  0  0  0  0  0  0  0  0
   -0.2595    3.8941    3.7727 C   0  0  0  0  0  0  0  0  0  0  0  0
    0.8326    4.1383    5.9437 C   0  0  0  0  0  0  0  0  0  0  0  0
    1.0886    3.6628    7.3693 C   0  0  0  0  0  0  0  0  0  0  0  0
   -0.2357    3.3269    8.0539 C   0  0  1  0  0  0  0  0  0  0  0  0
   -0.9836    4.5149    8.2001 O   0  0  0  0  0  0  0  0  0  0  0  0
   -1.0295    2.2249    7.2982 C   0  0  0  0  0  0  0  0  0  0  0  0
   -0.4132    0.8662    7.7076 C   0  0  0  0  0  0  0  0  0  0  0  0
   -2.4685    2.1960    7.8646 C   0  0  0  0  0  0  0  0  0  0  0  0
   -1.0937    2.4942    5.7304 C   0  0  2  0  0  0  0  0  0  0  0  0
   -1.7075    1.3368    4.9002 C   0  0  0  0  0  0  0  0  0  0  0  0
   -0.7203    0.2368    4.4775 C   0  0  0  0  0  0  0  0  0  0  0  0
    0.5681    0.7431    3.7889 C   0  0  1  0  0  0  0  0  0  0  0  0
    0.1935    1.1274    2.3253 C   0  0  0  0  0  0  0  0  0  0  0  0
    1.5975   -0.4363    3.7282 C   0  0  2  0  0  0  0  0  0  0  0  0
    1.7262   -1.1351    4.9591 O   0  0  0  0  0  0  0  0  0  0  0  0
    2.7746   -2.1229    4.9042 C   0  0  2  0  0  0  0  0  0  0  0  0
    3.5926   -1.9956    6.2256 C   0  0  1  0  0  0  0  0  0  0  0  0
    3.3429   -2.9419    7.2464 O   0  0  0  0  0  0  0  0  0  0  0  0
    4.9318   -1.9989    5.7600 O   0  0  0  0  0  0  0  0  0  0  0  0
    4.9405   -1.1973    4.4875 O   0  0  0  0  0  0  0  0  0  0  0  0
    3.7301   -1.5191    3.8234 C   0  0  1  0  0  0  0  0  0  0  0  0
    4.1051   -2.5373    2.6867 C   0  0  1  0  0  0  0  0  0  0  0  0
    5.2388   -3.5593    2.9482 C   0  0  0  0  0  0  0  0  0  0  0  0
    4.9307   -4.8068    2.0891 C   0  0  1  0  0  0  0  0  0  0  0  0
    4.6070   -5.8731    2.9489 O   0  0  0  0  0  0  0  0  0  0  0  0
    3.7350   -4.4334    1.1893 C   0  0  0  0  0  0  0  0  0  0  0  0
    4.2922   -3.7619   -0.0947 C   0  0  0  0  0  0  0  0  0  0  0  0
    2.9398   -5.6485    0.6349 C   0  0  0  0  0  0  0  0  0  0  0  0
    2.9594   -3.3621    2.0393 C   0  0  1  0  0  0  0  0  0  0  0  0
    1.8755   -3.7906    3.0899 C   0  0  1  0  0  0  0  0  0  0  0  0
    1.3272   -5.0640    2.8961 O   0  0  0  0  0  0  0  0  0  0  0  0
    2.1892   -3.5635    4.5993 C   0  0  1  0  0  0  0  0  0  0  0  0
    3.1320   -4.5486    4.9805 O   0  0  0  0  0  0  0  0  0  0  0  0
    0.9441   -3.8899    5.4938 C   0  0  0  0  0  0  0  0  0  0  0  0
   -0.1594   -3.0377    5.2724 O   0  0  0  0  0  0  0  0  0  0  0  0
    3.0711   -0.1444    3.3845 C   0  0  2  0  0  0  0  0  0  0  0  0
    3.2655    0.1649    1.8734 C   0  0  0  0  0  0  0  0  0  0  0  0
    3.9735    0.9930    8.1682 H   0  0  0  0  0  0  0  0  0  0  0  0
    5.4064    2.0326    8.2487 H   0  0  0  0  0  0  0  0  0  0  0  0
    5.5467    0.3878    7.6036 H   0  0  0  0  0  0  0  0  0  0  0  0
    4.5005    1.4564    3.7173 H   0  0  0  0  0  0  0  0  0  0  0  0
    2.9384    3.1837    4.5673 H   0  0  0  0  0  0  0  0  0  0  0  0
    2.4713    2.6584    3.0192 H   0  0  0  0  0  0  0  0  0  0  0  0
    1.4140    1.4649    5.5805 H   0  0  0  0  0  0  0  0  0  0  0  0
   -0.7910    4.8023    4.0479 H   0  0  0  0  0  0  0  0  0  0  0  0
   -0.9380    3.3661    3.1121 H   0  0  0  0  0  0  0  0  0  0  0  0
    0.5982    4.2043    3.1743 H   0  0  0  0  0  0  0  0  0  0  0  0
    1.7482    4.5461    5.5265 H   0  0  0  0  0  0  0  0  0  0  0  0
    0.1828    5.0123    6.0064 H   0  0  0  0  0  0  0  0  0  0  0  0
    1.7551    2.8002    7.3730 H   0  0  0  0  0  0  0  0  0  0  0  0
    1.6029    4.4411    7.9312 H   0  0  0  0  0  0  0  0  0  0  0  0
   -0.0114    2.9877    9.0669 H   0  0  0  0  0  0  0  0  0  0  0  0
   -1.6560    4.3617    8.8515 H   0  0  0  0  0  0  0  0  0  0  0  0
   -0.9999    0.0207    7.3560 H   0  0  0  0  0  0  0  0  0  0  0  0
   -0.3757    0.7671    8.7955 H   0  0  0  0  0  0  0  0  0  0  0  0
    0.6056    0.7348    7.3518 H   0  0  0  0  0  0  0  0  0  0  0  0
   -3.0046    1.3286    7.4927 H   0  0  0  0  0  0  0  0  0  0  0  0
   -3.0456    3.0766    7.5755 H   0  0  0  0  0  0  0  0  0  0  0  0
   -2.4776    2.1428    8.9573 H   0  0  0  0  0  0  0  0  0  0  0  0
   -1.8343    3.2934    5.6657 H   0  0  0  0  0  0  0  0  0  0  0  0
   -2.5145    0.8535    5.4421 H   0  0  0  0  0  0  0  0  0  0  0  0
   -2.1848    1.7461    4.0118 H   0  0  0  0  0  0  0  0  0  0  0  0
   -0.4625   -0.3432    5.3528 H   0  0  0  0  0  0  0  0  0  0  0  0
   -1.2356   -0.4651    3.8182 H   0  0  0  0  0  0  0  0  0  0  0  0
    0.3338    0.3101    1.6158 H   0  0  0  0  0  0  0  0  0  0  0  0
    0.7615    1.9725    1.9375 H   0  0  0  0  0  0  0  0  0  0  0  0
   -0.8564    1.4042    2.2201 H   0  0  0  0  0  0  0  0  0  0  0  0
    1.2227   -1.1425    2.9961 H   0  0  0  0  0  0  0  0  0  0  0  0
    3.3879   -1.0420    6.7077 H   0  0  0  0  0  0  0  0  0  0  0  0
    3.5148   -3.8038    6.8758 H   0  0  0  0  0  0  0  0  0  0  0  0
    4.5558   -1.9438    1.8978 H   0  0  0  0  0  0  0  0  0  0  0  0
    6.1898   -3.1380    2.6178 H   0  0  0  0  0  0  0  0  0  0  0  0
    5.3888   -3.8197    3.9969 H   0  0  0  0  0  0  0  0  0  0  0  0
    5.7938   -5.1251    1.4970 H   0  0  0  0  0  0  0  0  0  0  0  0
    4.4997   -6.6550    2.4204 H   0  0  0  0  0  0  0  0  0  0  0  0
    3.4869   -3.3478   -0.7077 H   0  0  0  0  0  0  0  0  0  0  0  0
    4.8295   -4.4757   -0.7222 H   0  0  0  0  0  0  0  0  0  0  0  0
    4.9996   -2.9577    0.0994 H   0  0  0  0  0  0  0  0  0  0  0  0
    2.0142   -5.3194    0.1596 H   0  0  0  0  0  0  0  0  0  0  0  0
    2.6801   -6.3972    1.3791 H   0  0  0  0  0  0  0  0  0  0  0  0
    3.5059   -6.1908   -0.1216 H   0  0  0  0  0  0  0  0  0  0  0  0
    2.4235   -2.7336    1.3343 H   0  0  0  0  0  0  0  0  0  0  0  0
    1.0066   -3.1657    2.8868 H   0  0  0  0  0  0  0  0  0  0  0  0
    1.9934   -5.7108    3.1363 H   0  0  0  0  0  0  0  0  0  0  0  0
    3.8733   -4.5424    4.3776 H   0  0  0  0  0  0  0  0  0  0  0  0
    0.6125   -4.9180    5.3315 H   0  0  0  0  0  0  0  0  0  0  0  0
    1.1699   -3.8439    6.5557 H   0  0  0  0  0  0  0  0  0  0  0  0
    0.1703   -2.1468    5.3211 H   0  0  0  0  0  0  0  0  0  0  0  0
    2.8120   -0.5831    1.2245 H   0  0  0  0  0  0  0  0  0  0  0  0
    4.3236    0.2313    1.6268 H   0  0  0  0  0  0  0  0  0  0  0  0
    2.8288    1.1113    1.5760 H   0  0  0  0  0  0  0  0  0  0  0  0
  1  2  1  0
  1 46  1  0
  1 47  1  0
  1 48  1  0
  2  3  2  0
  2  4  1  0
  4  5  1  0
  5 44  1  0
  5  6  1  0
  5 49  1  6
  6  7  1  0
  6 50  1  0
  6 51  1  0
  7 20  1  0
  7  8  1  0
  7 52  1  1
  8 17  1  0
  8  9  1  6
  8 10  1  0
  9 53  1  0
  9 54  1  0
  9 55  1  0
 10 11  1  0
 10 56  1  0
 10 57  1  0
 11 12  1  0
 11 58  1  0
 11 59  1  0
 12 13  1  0
 12 14  1  0
 12 60  1  1
 13 61  1  0
 14 15  1  0
 14 16  1  0
 14 17  1  0
 15 62  1  0
 15 63  1  0
 15 64  1  0
 16 65  1  0
 16 66  1  0
 16 67  1  0
 17 18  1  0
 17 68  1  1
 18 19  1  0
 18 69  1  0
 18 70  1  0
 19 20  1  0
 19 71  1  0
 19 72  1  0
 20 21  1  6
 20 22  1  0
 21 73  1  0
 21 74  1  0
 21 75  1  0
 22 44  1  0
 22 23  1  0
 22 76  1  6
 24 23  1  1
 24 29  1  0
 24 40  1  0
 24 25  1  0
 25 26  1  0
 25 27  1  0
 25 77  1  1
 26 78  1  0
 27 28  1  0
 29 28  1  1
 29 30  1  0
 29 44  1  0
 30 37  1  0
 30 31  1  0
 30 79  1  6
 31 32  1  0
 31 80  1  0
 31 81  1  0
 32 33  1  0
 32 34  1  0
 32 82  1  6
 33 83  1  0
 34 35  1  0
 34 36  1  0
 34 37  1  0
 35 84  1  0
 35 85  1  0
 35 86  1  0
 36 87  1  0
 36 88  1  0
 36 89  1  0
 37 38  1  0
 37 90  1  6
 38 39  1  0
 38 40  1  0
 38 91  1  6
 39 92  1  0
 40 41  1  1
 40 42  1  0
 41 93  1  0
 42 43  1  0
 42 94  1  0
 42 95  1  0
 43 96  1  0
 44 45  1  6
 45 97  1  0
 45 98  1  0
 45 99  1  0
M  END
>  <i_m_ct_stereo_status>  (66) 
1

>  <s_m_source_file>  (66) 
/var/tmp/pbs.5083858.sched01/tmpza6kqm8b/25fbxx885r.sdf

>  <i_m_source_file_index>  (66) 
5

>  <i_lp_mmshare_version>  (66) 
48012

>  <i_f3d_flags>  (66) 
0

>  <s_epik_input>  (66) 
W0NIMl0xW0NIMl1bQ0BASF0oW09IXSlDKFtDSDNdKShbQ0gzXSlbQ0BIXShbQ0gyXVtDSDJdMilbQ0BdMShbQ0gzXSlbQ0BIXShbQ0gyXVtDQEhdM09DKD1PKVtDSDNdKVtDQEBdMihbQ0gzXSlbQ0BIXShPNClbQ0BdMyhbQ0gzXSlbQ0BdKFtDQF00NTYpKE9PW0NAQEhdNVtPSF0pW0NAQEhdN1tDQEBIXShDKFtDSDNdKShbQ0gzXSlbQ0BASF0oW0NIMl03KVtPSF0pW0NAQEhdKFtPSF0pW0NAXTYoW09IXSlbQ0gyXVtPSF0=

>  <s_epik_cmdline>  (66) 
J2VwaWtfcHl0aG9uJywgJy1waHQnLCAnMi4wJywgJy1waCcsICc3LjAnLCAnLXRuJywgJzgnLCAnLW1hJywgJzIwMCcsICctaW1hZScsICc8aW5maWxlLm1hZT4nLCAnLW9tYWUnLCAnPG91dGZpbGUubWFlPic=

>  <r_lp_tautomer_probability>  (66) 
1

>  <r_epik_Ionization_Penalty>  (66) 
5.13848e-05

>  <r_epik_Ionization_Penalty_Charging>  (66) 
0

>  <r_epik_Ionization_Penalty_Neutral>  (66) 
5.13848e-05

>  <r_epik_State_Penalty>  (66) 
-0

>  <r_epik_Charging_Adjusted_Penalty>  (66) 
0

>  <i_epik_Tot_Q>  (66) 
0

>  <i_epik_Tot_abs_Q>  (66) 
0

>  <s_epik_Chemistry_Notes>  (66) 
This compound has an ester and may undergo hydrolysis at high or low pH. This compound contains an acetal/aminal-like group ( X-CH(R)-Y where X, Y are N, S, or O) that may be acid/base labile, releasing an aldehyde.

>  <s_lp_Force_Field>  (66) 
OPLS3e

>  <r_lp_Energy>  (66) 
109.427

>  <b_lp_Chiralities_Consistent>  (66) 
1

>  <s_lp_Variant>  (66) 
21:0-1

>  <s_i_glide_gridfile>  (66) 
pfpi4k_grid

>  <i_i_glide_lignum>  (66) 
5

>  <i_i_glide_rotatable_bonds>  (66) 
9

>  <r_i_docking_score>  (66) 
-3.17559

>  <r_i_glide_ligand_efficiency>  (66) 
-0.0705688

>  <r_i_glide_ligand_efficiency_sa>  (66) 
-0.251006

>  <r_i_glide_ligand_efficiency_ln>  (66) 
-0.660665

>  <r_i_glide_gscore>  (66) 
-3.17559

>  <r_i_glide_lipo>  (66) 
-0.121816

>  <r_i_glide_hbond>  (66) 
0

>  <r_i_glide_metal>  (66) 
-0

>  <r_i_glide_rewards>  (66) 
-1.50402

>  <r_i_glide_evdw>  (66) 
-25.5508

>  <r_i_glide_ecoul>  (66) 
-2.50701

>  <r_i_glide_erotb>  (66) 
0.10383

>  <r_i_glide_esite>  (66) 
0

>  <r_i_glide_emodel>  (66) 
-47.8744

>  <r_i_glide_energy>  (66) 
-28.0578

>  <r_i_glide_einternal>  (66) 
1.73257

>  <r_i_glide_intrahb_reward>  (66) 
-1.5

>  <i_i_glide_confnum>  (66) 
3

>  <i_i_glide_posenum>  (66) 
10

>  <r_i_glide_eff_state_penalty>  (66) 
0

>  <ligand_id>  (66) 
21

>  <original_smiles>  (66) 
CC(=O)OC1CC2C3(C)CCC(O)C(C)(C)C3CCC2(C)C2OC34C(O)OOC3(C3CC(O)C(C)(C)C3C(O)C4(O)CO)C12C

>  <smiles>  (66) 
[H]OC([H])([H])C1(O[H])C([H])(O[H])C2([H])C([H])(C([H])([H])C([H])(O[H])C2(C([H])([H])[H])C([H])([H])[H])C23OOC([H])(O[H])C12OC1([H])C2(C([H])([H])[H])C([H])([H])C([H])([H])C4([H])C(C([H])([H])[H])(C([H])([H])[H])C([H])(O[H])C([H])([H])C([H])([H])C4(C([H])([H])[H])C2([H])C([H])([H])C([H])(OC(=O)C([H])([H])[H])C13C([H])([H])[H]

$$$$
22:0:0
     RDKit          3D

 98105  0  0  1  0  0  0  0  0999 V2000
   -1.9011    3.3555    7.3030 C   0  0  0  0  0  0  0  0  0  0  0  0
   -1.3622    2.3782    6.2497 C   0  0  2  0  0  0  0  0  0  0  0  0
   -0.1128    1.8762    6.7190 O   0  0  0  0  0  0  0  0  0  0  0  0
    0.7059    1.1273    5.8192 C   0  0  1  0  0  0  0  0  0  0  0  0
    0.2110   -0.3632    5.6940 C   0  0  1  0  0  0  0  0  0  0  0  0
   -1.1626   -0.4389    5.3050 O   0  0  0  0  0  0  0  0  0  0  0  0
    1.1756   -1.4410    4.9745 C   0  0  1  0  0  0  0  0  0  0  0  0
    0.3581   -1.7839    3.6775 C   0  0  0  0  0  0  0  0  0  0  0  0
    2.4900   -0.6626    4.5232 C   0  0  2  0  0  0  0  0  0  0  0  0
    3.7479   -0.3766    5.4779 C   0  0  1  0  0  0  0  0  0  0  0  0
    3.9436   -0.8033    7.0050 C   0  0  0  0  0  0  0  0  0  0  0  0
    2.8337   -0.7840    8.0815 C   0  0  0  0  0  0  0  0  0  0  0  0
    3.0039   -0.2855    9.1853 O   0  0  0  0  0  0  0  0  0  0  0  0
    1.7797   -1.4820    7.7289 O   0  0  0  0  0  0  0  0  0  0  0  0
    1.2564   -2.6448    8.3742 C   0  0  1  0  0  0  0  0  0  0  0  0
   -0.0864   -2.9808    7.6939 C   0  0  0  0  0  0  0  0  0  0  0  0
    0.0427   -3.4436    6.2085 C   0  0  0  0  0  0  0  0  0  0  0  0
    1.3623   -3.0400    5.5293 C   0  0  1  0  0  0  0  0  0  0  0  0
    1.6194   -3.9434    4.4122 O   0  0  0  0  0  0  0  0  0  0  0  0
    2.7493   -3.4424    3.4846 O   0  0  0  0  0  0  0  0  0  0  0  0
    4.1034   -3.6402    3.9796 C   0  0  2  0  0  0  0  0  0  0  0  0
    5.0177   -3.8755    2.7933 C   0  0  0  0  0  0  0  0  0  0  0  0
    4.1682   -4.9134    4.8814 C   0  0  0  0  0  0  0  0  0  0  0  0
    3.1516   -5.0163    6.0209 C   0  0  0  0  0  0  0  0  0  0  0  0
    2.4946   -3.6812    6.4921 C   0  0  2  0  0  0  0  0  0  0  0  0
    2.1893   -3.8191    8.0468 C   0  0  0  0  0  0  0  0  0  0  0  0
    3.4530   -3.7600    8.9271 C   0  0  0  0  0  0  0  0  0  0  0  0
    1.5328   -5.1672    8.4662 C   0  0  0  0  0  0  0  0  0  0  0  0
    4.7097   -2.5975    4.8243 O   0  0  0  0  0  0  0  0  0  0  0  0
    4.8462   -1.1548    4.6551 C   0  0  1  0  0  0  0  0  0  0  0  0
    5.0824   -0.5413    3.2381 C   0  0  0  0  0  0  0  0  0  0  0  0
    3.8406    0.0156    2.4606 C   0  0  1  0  0  0  0  0  0  0  0  0
    3.5790   -0.9421    1.4392 O   0  0  0  0  0  0  0  0  0  0  0  0
    2.5283    0.3471    3.3005 C   0  0  1  0  0  0  0  0  0  0  0  0
    1.5348    0.2582    2.3022 O   0  0  0  0  0  0  0  0  0  0  0  0
    2.3406    1.8168    3.7993 C   0  0  2  0  0  0  0  0  0  0  0  0
    2.3430    2.8434    2.6340 C   0  0  0  0  0  0  0  0  0  0  0  0
    3.6051    2.1871    4.6184 C   0  0  1  0  0  0  0  0  0  0  0  0
    3.6335    3.5808    5.2859 C   0  0  0  0  0  0  0  0  0  0  0  0
    4.1776    1.1256    5.5391 C   0  0  0  0  0  0  0  0  0  0  0  0
    5.1515    1.4699    6.2049 O   0  0  0  0  0  0  0  0  0  0  0  0
    1.0072    2.0351    4.6013 C   0  0  1  0  0  0  0  0  0  0  0  0
   -0.3029    2.2955    3.8476 C   0  0  0  0  0  0  0  0  0  0  0  0
   -1.3295    2.9717    4.7818 C   0  0  1  0  0  0  0  0  0  0  0  0
   -2.6885    2.8683    4.1324 C   0  0  0  0  0  0  0  0  0  0  0  0
   -1.0565    4.3562    4.8065 O   0  0  0  0  0  0  0  0  0  0  0  0
   -2.8702    3.7636    7.0176 H   0  0  0  0  0  0  0  0  0  0  0  0
   -1.2255    4.1993    7.4707 H   0  0  0  0  0  0  0  0  0  0  0  0
   -2.0347    2.8629    8.2641 H   0  0  0  0  0  0  0  0  0  0  0  0
   -2.0675    1.5449    6.2694 H   0  0  0  0  0  0  0  0  0  0  0  0
    1.6360    1.0903    6.3829 H   0  0  0  0  0  0  0  0  0  0  0  0
    0.0416   -0.5885    6.7255 H   0  0  0  0  0  0  0  0  0  0  0  0
   -1.2370   -0.0137    4.4564 H   0  0  0  0  0  0  0  0  0  0  0  0
    0.9511   -2.1723    2.8645 H   0  0  0  0  0  0  0  0  0  0  0  0
   -0.1377   -0.9247    3.2716 H   0  0  0  0  0  0  0  0  0  0  0  0
   -0.4403   -2.5031    3.8199 H   0  0  0  0  0  0  0  0  0  0  0  0
    2.8043   -1.4366    3.8969 H   0  0  0  0  0  0  0  0  0  0  0  0
    4.4907   -1.7336    7.0546 H   0  0  0  0  0  0  0  0  0  0  0  0
    4.7168   -0.2198    7.4976 H   0  0  0  0  0  0  0  0  0  0  0  0
    1.1251   -2.4908    9.4437 H   0  0  0  0  0  0  0  0  0  0  0  0
   -0.6373   -3.7245    8.2639 H   0  0  0  0  0  0  0  0  0  0  0  0
   -0.7226   -2.1134    7.7335 H   0  0  0  0  0  0  0  0  0  0  0  0
   -0.0810   -4.5351    6.1198 H   0  0  0  0  0  0  0  0  0  0  0  0
   -0.8476   -3.0758    5.7109 H   0  0  0  0  0  0  0  0  0  0  0  0
    4.8845   -3.1217    2.0083 H   0  0  0  0  0  0  0  0  0  0  0  0
    4.8455   -4.8448    2.3127 H   0  0  0  0  0  0  0  0  0  0  0  0
    6.0756   -3.8655    3.0734 H   0  0  0  0  0  0  0  0  0  0  0  0
    4.1089   -5.8115    4.2711 H   0  0  0  0  0  0  0  0  0  0  0  0
    5.1715   -4.9381    5.3130 H   0  0  0  0  0  0  0  0  0  0  0  0
    2.3920   -5.7652    5.7651 H   0  0  0  0  0  0  0  0  0  0  0  0
    3.7100   -5.4505    6.8357 H   0  0  0  0  0  0  0  0  0  0  0  0
    3.3059   -3.0327    6.4433 H   0  0  0  0  0  0  0  0  0  0  0  0
    3.9999   -4.7110    8.9390 H   0  0  0  0  0  0  0  0  0  0  0  0
    3.1906   -3.5374    9.9648 H   0  0  0  0  0  0  0  0  0  0  0  0
    4.1777   -3.0207    8.6218 H   0  0  0  0  0  0  0  0  0  0  0  0
    2.2643   -5.9818    8.5258 H   0  0  0  0  0  0  0  0  0  0  0  0
    0.7631   -5.5264    7.7978 H   0  0  0  0  0  0  0  0  0  0  0  0
    1.0882   -5.0874    9.4611 H   0  0  0  0  0  0  0  0  0  0  0  0
    5.7799   -0.9981    5.1774 H   0  0  0  0  0  0  0  0  0  0  0  0
    5.7648    0.2958    3.4015 H   0  0  0  0  0  0  0  0  0  0  0  0
    5.7025   -1.2062    2.6303 H   0  0  0  0  0  0  0  0  0  0  0  0
    4.1421    0.9022    1.9111 H   0  0  0  0  0  0  0  0  0  0  0  0
    3.1551   -0.5035    0.7036 H   0  0  0  0  0  0  0  0  0  0  0  0
    1.7173   -0.5200    1.7781 H   0  0  0  0  0  0  0  0  0  0  0  0
    2.0473    3.8482    2.9292 H   0  0  0  0  0  0  0  0  0  0  0  0
    1.7161    2.5895    1.7756 H   0  0  0  0  0  0  0  0  0  0  0  0
    3.3524    2.9449    2.2334 H   0  0  0  0  0  0  0  0  0  0  0  0
    4.4086    2.2349    3.8905 H   0  0  0  0  0  0  0  0  0  0  0  0
    4.6557    3.9031    5.4765 H   0  0  0  0  0  0  0  0  0  0  0  0
    3.1133    3.5672    6.2447 H   0  0  0  0  0  0  0  0  0  0  0  0
    3.1911    4.3669    4.6745 H   0  0  0  0  0  0  0  0  0  0  0  0
    1.1946    2.9996    5.0489 H   0  0  0  0  0  0  0  0  0  0  0  0
   -0.1637    2.9346    2.9660 H   0  0  0  0  0  0  0  0  0  0  0  0
   -0.6928    1.3573    3.4651 H   0  0  0  0  0  0  0  0  0  0  0  0
   -2.9413    1.8138    4.0262 H   0  0  0  0  0  0  0  0  0  0  0  0
   -2.7284    3.3060    3.1237 H   0  0  0  0  0  0  0  0  0  0  0  0
   -3.4741    3.3256    4.7382 H   0  0  0  0  0  0  0  0  0  0  0  0
   -0.1481    4.4514    5.0576 H   0  0  0  0  0  0  0  0  0  0  0  0
  1  2  1  0
  1 47  1  0
  1 48  1  0
  1 49  1  0
  2 44  1  0
  2  3  1  0
  2 50  1  6
  3  4  1  0
  4 42  1  0
  4  5  1  0
  4 51  1  1
  5  6  1  0
  5  7  1  0
  5 52  1  1
  6 53  1  0
  7 18  1  0
  7  8  1  6
  7  9  1  0
  8 54  1  0
  8 55  1  0
  8 56  1  0
  9 34  1  0
  9 10  1  0
  9 57  1  6
 10 30  1  0
 10 40  1  1
 10 11  1  0
 11 12  1  0
 11 58  1  0
 11 59  1  0
 12 13  2  0
 12 14  1  0
 14 15  1  0
 15 26  1  0
 15 16  1  0
 15 60  1  1
 16 17  1  0
 16 61  1  0
 16 62  1  0
 17 18  1  0
 17 63  1  0
 17 64  1  0
 18 25  1  0
 18 19  1  6
 19 20  1  0
 20 21  1  0
 21 22  1  6
 21 23  1  0
 21 29  1  0
 22 65  1  0
 22 66  1  0
 22 67  1  0
 23 24  1  0
 23 68  1  0
 23 69  1  0
 24 25  1  0
 24 70  1  0
 24 71  1  0
 25 26  1  0
 25 72  1  1
 26 27  1  0
 26 28  1  0
 27 73  1  0
 27 74  1  0
 27 75  1  0
 28 76  1  0
 28 77  1  0
 28 78  1  0
 29 30  1  0
 30 31  1  0
 30 79  1  1
 31 32  1  0
 31 80  1  0
 31 81  1  0
 32 33  1  0
 32 34  1  0
 32 82  1  6
 33 83  1  0
 34 35  1  6
 34 36  1  0
 35 84  1  0
 36 37  1  6
 36 38  1  0
 36 42  1  0
 37 85  1  0
 37 86  1  0
 37 87  1  0
 38 39  1  0
 38 40  1  0
 38 88  1  6
 39 89  1  0
 39 90  1  0
 39 91  1  0
 40 41  2  0
 42 43  1  0
 42 92  1  1
 43 44  1  0
 43 93  1  0
 43 94  1  0
 44 45  1  0
 44 46  1  1
 45 95  1  0
 45 96  1  0
 45 97  1  0
 46 98  1  0
M  END
>  <i_m_ct_stereo_status>  (67) 
1

>  <s_m_source_file>  (67) 
/var/tmp/pbs.5083858.sched01/tmplcwk7gb1/30cq16h13y.sdf

>  <i_m_source_file_index>  (67) 
1

>  <i_lp_mmshare_version>  (67) 
48012

>  <i_f3d_flags>  (67) 
0

>  <s_epik_input>  (67) 
W0NIMl0xW0NAXShbQ0gzXSkoW09IXSlbQ0BIXShbQ0gzXSlPW0NAQEhdKFtDQEhdMltPSF0pW0NASF0xW0NAQF0oW0NIM10pKFtDQEBIXShbQ0gzXSlDMz1PKVtDQEBdNChbT0hdKVtDQEhdKFtPSF0pW0NIMl1bQ0BASF01T1tDQEBdKE9PNikoW0NIM10pW0NIMl1bQ0gyXVtDQEBIXShbQ0BAXTY3W0NAXTIoW0NIM10pW0NASF00W0NAXTM1OClDKFtDSDNdKShbQ0gzXSlbQ0BIXShbQ0gyXVtDSDJdNylPQyg9TylbQ0gyXTg=

>  <s_epik_cmdline>  (67) 
J2VwaWtfcHl0aG9uJywgJy1waHQnLCAnMi4wJywgJy1waCcsICc3LjAnLCAnLXRuJywgJzgnLCAnLW1hJywgJzIwMCcsICctaW1hZScsICc8aW5maWxlLm1hZT4nLCAnLW9tYWUnLCAnPG91dGZpbGUubWFlPic=

>  <r_lp_tautomer_probability>  (67) 
1

>  <r_epik_Ionization_Penalty>  (67) 
2.53348e-07

>  <r_epik_Ionization_Penalty_Charging>  (67) 
0

>  <r_epik_Ionization_Penalty_Neutral>  (67) 
2.53348e-07

>  <r_epik_State_Penalty>  (67) 
-0

>  <r_epik_Charging_Adjusted_Penalty>  (67) 
0

>  <i_epik_Tot_Q>  (67) 
0

>  <i_epik_Tot_abs_Q>  (67) 
0

>  <s_epik_Chemistry_Notes>  (67) 
This compound has an ester and may undergo hydrolysis at high or low pH.

>  <s_lp_Force_Field>  (67) 
OPLS3e

>  <r_lp_Energy>  (67) 
278.505

>  <b_lp_Chiralities_Consistent>  (67) 
1

>  <s_lp_Variant>  (67) 
22:0-1

>  <s_i_glide_gridfile>  (67) 
pfpi4k_grid

>  <i_i_glide_lignum>  (67) 
1

>  <i_i_glide_rotatable_bonds>  (67) 
4

>  <r_i_docking_score>  (67) 
-2.3132

>  <r_i_glide_ligand_efficiency>  (67) 
-0.050287

>  <r_i_glide_ligand_efficiency_sa>  (67) 
-0.180181

>  <r_i_glide_ligand_efficiency_ln>  (67) 
-0.479059

>  <r_i_glide_gscore>  (67) 
-2.3132

>  <r_i_glide_lipo>  (67) 
-0.284937

>  <r_i_glide_hbond>  (67) 
0

>  <r_i_glide_metal>  (67) 
-0

>  <r_i_glide_rewards>  (67) 
-0.00191991

>  <r_i_glide_evdw>  (67) 
-27.7995

>  <r_i_glide_ecoul>  (67) 
-4.24249

>  <r_i_glide_erotb>  (67) 
0

>  <r_i_glide_esite>  (67) 
0

>  <r_i_glide_emodel>  (67) 
-35.9722

>  <r_i_glide_energy>  (67) 
-32.042

>  <r_i_glide_einternal>  (67) 
1.17561

>  <r_i_glide_intrahb_reward>  (67) 
-0

>  <i_i_glide_confnum>  (67) 
1

>  <i_i_glide_posenum>  (67) 
26

>  <r_i_glide_eff_state_penalty>  (67) 
0

>  <ligand_id>  (67) 
22

>  <original_smiles>  (67) 
CC1OC2C(O)C3(C)C4C56CC(=O)OC7CCC38OOC(C)(CCC8C7(C)C)OC5CC(O)C4(O)C(C)(C(C)C6=O)C2CC1(C)O

>  <smiles>  (67) 
[H]OC1([H])C([H])([H])C2([H])OC3(C([H])([H])[H])OOC45C([H])([H])C([H])([H])C([H])(OC(=O)C([H])([H])C26C(=O)C([H])(C([H])([H])[H])C2(C([H])([H])[H])C7([H])C([H])([H])C(O[H])(C([H])([H])[H])C([H])(C([H])([H])[H])OC7([H])C([H])(O[H])C4(C([H])([H])[H])C6([H])C12O[H])C(C([H])([H])[H])(C([H])([H])[H])C5([H])C([H])([H])C3([H])[H]

$$$$
22:0:1
     RDKit          3D

 98105  0  0  1  0  0  0  0  0999 V2000
   -0.8413    3.4076    8.7903 C   0  0  0  0  0  0  0  0  0  0  0  0
   -0.6863    2.4686    7.5731 C   0  0  2  0  0  0  0  0  0  0  0  0
    0.6069    1.8587    7.6475 O   0  0  0  0  0  0  0  0  0  0  0  0
    1.0842    1.1211    6.5183 C   0  0  1  0  0  0  0  0  0  0  0  0
    0.4292   -0.3189    6.4522 C   0  0  1  0  0  0  0  0  0  0  0  0
   -0.9969   -0.2594    6.4225 O   0  0  0  0  0  0  0  0  0  0  0  0
    1.0465   -1.4001    5.4156 C   0  0  1  0  0  0  0  0  0  0  0  0
   -0.1247   -1.5963    4.3685 C   0  0  0  0  0  0  0  0  0  0  0  0
    2.2803   -0.6819    4.6895 C   0  0  2  0  0  0  0  0  0  0  0  0
    3.7756   -0.5489    5.2834 C   0  0  1  0  0  0  0  0  0  0  0  0
    4.3303   -1.1067    6.6867 C   0  0  0  0  0  0  0  0  0  0  0  0
    3.5519   -1.0955    8.0186 C   0  0  0  0  0  0  0  0  0  0  0  0
    4.0623   -0.6921    9.0681 O   0  0  0  0  0  0  0  0  0  0  0  0
    2.3852   -1.6870    7.9391 O   0  0  0  0  0  0  0  0  0  0  0  0
    1.9512   -2.8506    8.6332 C   0  0  1  0  0  0  0  0  0  0  0  0
    0.4338   -3.0233    8.3422 C   0  0  0  0  0  0  0  0  0  0  0  0
    0.1269   -3.3933    6.8509 C   0  0  0  0  0  0  0  0  0  0  0  0
    1.2693   -3.0211    5.8338 C   0  0  1  0  0  0  0  0  0  0  0  0
    1.1079   -3.8658    4.6558 O   0  0  0  0  0  0  0  0  0  0  0  0
    2.0301   -3.4097    3.4474 O   0  0  0  0  0  0  0  0  0  0  0  0
    3.4458   -3.7290    3.6002 C   0  0  2  0  0  0  0  0  0  0  0  0
    4.0016   -3.9194    2.1742 C   0  0  0  0  0  0  0  0  0  0  0  0
    3.6365   -5.0540    4.3614 C   0  0  0  0  0  0  0  0  0  0  0  0
    2.9417   -5.1698    5.7283 C   0  0  0  0  0  0  0  0  0  0  0  0
    2.5470   -3.8342    6.4298 C   0  0  2  0  0  0  0  0  0  0  0  0
    2.6523   -4.0584    7.9994 C   0  0  0  0  0  0  0  0  0  0  0  0
    4.1161   -4.1634    8.5082 C   0  0  0  0  0  0  0  0  0  0  0  0
    2.0270   -5.4006    8.5112 C   0  0  0  0  0  0  0  0  0  0  0  0
    4.3260   -2.7814    4.2925 O   0  0  0  0  0  0  0  0  0  0  0  0
    4.5375   -1.3401    4.1683 C   0  0  1  0  0  0  0  0  0  0  0  0
    4.4767   -0.6410    2.7768 C   0  0  0  0  0  0  0  0  0  0  0  0
    3.1482    0.0759    2.3735 C   0  0  1  0  0  0  0  0  0  0  0  0
    2.6190   -0.7795    1.3768 O   0  0  0  0  0  0  0  0  0  0  0  0
    2.1031    0.4105    3.5378 C   0  0  1  0  0  0  0  0  0  0  0  0
    0.8781    0.4214    2.8274 O   0  0  0  0  0  0  0  0  0  0  0  0
    2.1753    1.8494    4.1489 C   0  0  2  0  0  0  0  0  0  0  0  0
    1.9580    2.9460    3.0499 C   0  0  0  0  0  0  0  0  0  0  0  0
    3.6407    2.0802    4.6054 C   0  0  1  0  0  0  0  0  0  0  0  0
    3.9437    3.4054    5.3549 C   0  0  0  0  0  0  0  0  0  0  0  0
    4.3359    0.9120    5.2992 C   0  0  0  0  0  0  0  0  0  0  0  0
    5.4720    1.1368    5.7163 O   0  0  0  0  0  0  0  0  0  0  0  0
    1.1203    2.0941    5.3120 C   0  0  1  0  0  0  0  0  0  0  0  0
   -0.3220    2.4937    4.9707 C   0  0  0  0  0  0  0  0  0  0  0  0
   -1.0017    3.1465    6.1964 C   0  0  1  0  0  0  0  0  0  0  0  0
   -2.5255    3.1730    5.9697 C   0  0  0  0  0  0  0  0  0  0  0  0
   -0.6096    4.5026    6.1970 O   0  0  0  0  0  0  0  0  0  0  0  0
   -1.8074    3.9038    8.7967 H   0  0  0  0  0  0  0  0  0  0  0  0
   -0.0723    4.1859    8.8144 H   0  0  0  0  0  0  0  0  0  0  0  0
   -0.7575    2.8516    9.7236 H   0  0  0  0  0  0  0  0  0  0  0  0
   -1.4114    1.6873    7.7526 H   0  0  0  0  0  0  0  0  0  0  0  0
    2.1135    0.9701    6.8136 H   0  0  0  0  0  0  0  0  0  0  0  0
    0.5157   -0.6249    7.4678 H   0  0  0  0  0  0  0  0  0  0  0  0
   -1.2359    0.1929    5.6303 H   0  0  0  0  0  0  0  0  0  0  0  0
    0.2150   -1.9577    3.3978 H   0  0  0  0  0  0  0  0  0  0  0  0
   -0.6764   -0.6842    4.1362 H   0  0  0  0  0  0  0  0  0  0  0  0
   -0.9136   -2.2811    4.6709 H   0  0  0  0  0  0  0  0  0  0  0  0
    2.3433   -1.4337    3.9566 H   0  0  0  0  0  0  0  0  0  0  0  0
    4.7877   -2.0797    6.5361 H   0  0  0  0  0  0  0  0  0  0  0  0
    5.2508   -0.6238    6.9783 H   0  0  0  0  0  0  0  0  0  0  0  0
    2.1283   -2.7730    9.7034 H   0  0  0  0  0  0  0  0  0  0  0  0
    0.0167   -3.7921    8.9818 H   0  0  0  0  0  0  0  0  0  0  0  0
   -0.1106   -2.1379    8.6615 H   0  0  0  0  0  0  0  0  0  0  0  0
   -0.0831   -4.4599    6.7500 H   0  0  0  0  0  0  0  0  0  0  0  0
   -0.8324   -2.9448    6.6013 H   0  0  0  0  0  0  0  0  0  0  0  0
    3.7172   -3.1043    1.5050 H   0  0  0  0  0  0  0  0  0  0  0  0
    3.6231   -4.8364    1.7133 H   0  0  0  0  0  0  0  0  0  0  0  0
    5.0934   -3.9933    2.1773 H   0  0  0  0  0  0  0  0  0  0  0  0
    3.3322   -5.9022    3.7434 H   0  0  0  0  0  0  0  0  0  0  0  0
    4.7135   -5.1847    4.5033 H   0  0  0  0  0  0  0  0  0  0  0  0
    2.0912   -5.8466    5.6472 H   0  0  0  0  0  0  0  0  0  0  0  0
    3.6662   -5.7100    6.3387 H   0  0  0  0  0  0  0  0  0  0  0  0
    3.3680   -3.2430    6.2011 H   0  0  0  0  0  0  0  0  0  0  0  0
    4.5605   -5.1413    8.3174 H   0  0  0  0  0  0  0  0  0  0  0  0
    4.1598   -3.9987    9.5882 H   0  0  0  0  0  0  0  0  0  0  0  0
    4.7999   -3.4515    8.0547 H   0  0  0  0  0  0  0  0  0  0  0  0
    2.6710   -6.2569    8.3206 H   0  0  0  0  0  0  0  0  0  0  0  0
    1.0731   -5.6525    8.0513 H   0  0  0  0  0  0  0  0  0  0  0  0
    1.8668   -5.3660    9.5883 H   0  0  0  0  0  0  0  0  0  0  0  0
    5.5951   -1.2945    4.4302 H   0  0  0  0  0  0  0  0  0  0  0  0
    5.2470    0.1299    2.7958 H   0  0  0  0  0  0  0  0  0  0  0  0
    4.8426   -1.3099    1.9924 H   0  0  0  0  0  0  0  0  0  0  0  0
    3.4235    0.9859    1.8401 H   0  0  0  0  0  0  0  0  0  0  0  0
    1.8796   -0.3806    0.9421 H   0  0  0  0  0  0  0  0  0  0  0  0
    0.9394    1.0830    2.1527 H   0  0  0  0  0  0  0  0  0  0  0  0
    1.8826    3.9503    3.4795 H   0  0  0  0  0  0  0  0  0  0  0  0
    1.0536    2.8268    2.4548 H   0  0  0  0  0  0  0  0  0  0  0  0
    2.7870    3.0054    2.3359 H   0  0  0  0  0  0  0  0  0  0  0  0
    4.2053    2.1544    3.6906 H   0  0  0  0  0  0  0  0  0  0  0  0
    5.0053    3.6473    5.3049 H   0  0  0  0  0  0  0  0  0  0  0  0
    3.6932    3.3407    6.4177 H   0  0  0  0  0  0  0  0  0  0  0  0
    3.4305    4.2653    4.9381 H   0  0  0  0  0  0  0  0  0  0  0  0
    1.5055    3.0146    5.7515 H   0  0  0  0  0  0  0  0  0  0  0  0
   -0.3593    3.1884    4.1341 H   0  0  0  0  0  0  0  0  0  0  0  0
   -0.8704    1.6128    4.6437 H   0  0  0  0  0  0  0  0  0  0  0  0
   -2.9257    2.1586    5.9560 H   0  0  0  0  0  0  0  0  0  0  0  0
   -2.7844    3.6507    5.0242 H   0  0  0  0  0  0  0  0  0  0  0  0
   -3.0381    3.7100    6.7726 H   0  0  0  0  0  0  0  0  0  0  0  0
    0.3136    4.5269    6.3684 H   0  0  0  0  0  0  0  0  0  0  0  0
  1  2  1  0
  1 47  1  0
  1 48  1  0
  1 49  1  0
  2 44  1  0
  2  3  1  0
  2 50  1  1
  3  4  1  0
  4 42  1  0
  4  5  1  0
  4 51  1  1
  5  6  1  0
  5  7  1  0
  5 52  1  1
  6 53  1  0
  7 18  1  0
  7  8  1  6
  7  9  1  0
  8 54  1  0
  8 55  1  0
  8 56  1  0
  9 34  1  0
  9 10  1  0
  9 57  1  6
 10 30  1  0
 10 40  1  6
 10 11  1  0
 11 12  1  0
 11 58  1  0
 11 59  1  0
 12 13  2  0
 12 14  1  0
 14 15  1  0
 15 26  1  0
 15 16  1  0
 15 60  1  1
 16 17  1  0
 16 61  1  0
 16 62  1  0
 17 18  1  0
 17 63  1  0
 17 64  1  0
 18 25  1  0
 18 19  1  6
 19 20  1  0
 20 21  1  0
 21 22  1  6
 21 23  1  0
 21 29  1  0
 22 65  1  0
 22 66  1  0
 22 67  1  0
 23 24  1  0
 23 68  1  0
 23 69  1  0
 24 25  1  0
 24 70  1  0
 24 71  1  0
 25 26  1  0
 25 72  1  6
 26 27  1  0
 26 28  1  0
 27 73  1  0
 27 74  1  0
 27 75  1  0
 28 76  1  0
 28 77  1  0
 28 78  1  0
 29 30  1  0
 30 31  1  0
 30 79  1  1
 31 32  1  0
 31 80  1  0
 31 81  1  0
 32 33  1  0
 32 34  1  0
 32 82  1  6
 33 83  1  0
 34 35  1  6
 34 36  1  0
 35 84  1  0
 36 37  1  6
 36 38  1  0
 36 42  1  0
 37 85  1  0
 37 86  1  0
 37 87  1  0
 38 39  1  0
 38 40  1  0
 38 88  1  6
 39 89  1  0
 39 90  1  0
 39 91  1  0
 40 41  2  0
 42 43  1  0
 42 92  1  1
 43 44  1  0
 43 93  1  0
 43 94  1  0
 44 45  1  0
 44 46  1  1
 45 95  1  0
 45 96  1  0
 45 97  1  0
 46 98  1  0
M  END
>  <i_m_ct_stereo_status>  (68) 
1

>  <s_m_source_file>  (68) 
/var/tmp/pbs.5083858.sched01/tmplcwk7gb1/30cq16h13y.sdf

>  <i_m_source_file_index>  (68) 
1

>  <i_lp_mmshare_version>  (68) 
48012

>  <i_f3d_flags>  (68) 
0

>  <s_epik_input>  (68) 
W0NIMl0xW0NAXShbQ0gzXSkoW09IXSlbQ0BIXShbQ0gzXSlPW0NAQEhdKFtDQEhdMltPSF0pW0NASF0xW0NAQF0oW0NIM10pKFtDQEBIXShbQ0gzXSlDMz1PKVtDQEBdNChbT0hdKVtDQEhdKFtPSF0pW0NIMl1bQ0BASF01T1tDQEBdKE9PNikoW0NIM10pW0NIMl1bQ0gyXVtDQEBIXShbQ0BAXTY3W0NAXTIoW0NIM10pW0NASF00W0NAXTM1OClDKFtDSDNdKShbQ0gzXSlbQ0BIXShbQ0gyXVtDSDJdNylPQyg9TylbQ0gyXTg=

>  <s_epik_cmdline>  (68) 
J2VwaWtfcHl0aG9uJywgJy1waHQnLCAnMi4wJywgJy1waCcsICc3LjAnLCAnLXRuJywgJzgnLCAnLW1hJywgJzIwMCcsICctaW1hZScsICc8aW5maWxlLm1hZT4nLCAnLW9tYWUnLCAnPG91dGZpbGUubWFlPic=

>  <r_lp_tautomer_probability>  (68) 
1

>  <r_epik_Ionization_Penalty>  (68) 
2.53348e-07

>  <r_epik_Ionization_Penalty_Charging>  (68) 
0

>  <r_epik_Ionization_Penalty_Neutral>  (68) 
2.53348e-07

>  <r_epik_State_Penalty>  (68) 
-0

>  <r_epik_Charging_Adjusted_Penalty>  (68) 
0

>  <i_epik_Tot_Q>  (68) 
0

>  <i_epik_Tot_abs_Q>  (68) 
0

>  <s_epik_Chemistry_Notes>  (68) 
This compound has an ester and may undergo hydrolysis at high or low pH.

>  <s_lp_Force_Field>  (68) 
OPLS3e

>  <r_lp_Energy>  (68) 
278.505

>  <b_lp_Chiralities_Consistent>  (68) 
1

>  <s_lp_Variant>  (68) 
22:0-1

>  <s_i_glide_gridfile>  (68) 
pfpi4k_grid

>  <i_i_glide_lignum>  (68) 
1

>  <i_i_glide_rotatable_bonds>  (68) 
4

>  <r_i_docking_score>  (68) 
-2.22417

>  <r_i_glide_ligand_efficiency>  (68) 
-0.0483515

>  <r_i_glide_ligand_efficiency_sa>  (68) 
-0.173246

>  <r_i_glide_ligand_efficiency_ln>  (68) 
-0.46062

>  <r_i_glide_gscore>  (68) 
-2.22417

>  <r_i_glide_lipo>  (68) 
-0.193801

>  <r_i_glide_hbond>  (68) 
0

>  <r_i_glide_metal>  (68) 
-0

>  <r_i_glide_rewards>  (68) 
-0.0114324

>  <r_i_glide_evdw>  (68) 
-28.6014

>  <r_i_glide_ecoul>  (68) 
-3.92576

>  <r_i_glide_erotb>  (68) 
0

>  <r_i_glide_esite>  (68) 
0

>  <r_i_glide_emodel>  (68) 
-36.9953

>  <r_i_glide_energy>  (68) 
-32.5272

>  <r_i_glide_einternal>  (68) 
0.430773

>  <r_i_glide_intrahb_reward>  (68) 
-0

>  <i_i_glide_confnum>  (68) 
2

>  <i_i_glide_posenum>  (68) 
34

>  <r_i_glide_eff_state_penalty>  (68) 
0

>  <ligand_id>  (68) 
22

>  <original_smiles>  (68) 
CC1OC2C(O)C3(C)C4C56CC(=O)OC7CCC38OOC(C)(CCC8C7(C)C)OC5CC(O)C4(O)C(C)(C(C)C6=O)C2CC1(C)O

>  <smiles>  (68) 
[H]OC1([H])C([H])([H])C2([H])OC3(C([H])([H])[H])OOC45C([H])([H])C([H])([H])C([H])(OC(=O)C([H])([H])C26C(=O)C([H])(C([H])([H])[H])C2(C([H])([H])[H])C7([H])C([H])([H])C(O[H])(C([H])([H])[H])C([H])(C([H])([H])[H])OC7([H])C([H])(O[H])C4(C([H])([H])[H])C6([H])C12O[H])C(C([H])([H])[H])(C([H])([H])[H])C5([H])C([H])([H])C3([H])[H]

$$$$
22:0:2
     RDKit          3D

 98105  0  0  1  0  0  0  0  0999 V2000
   -0.8583    2.9779    9.3849 C   0  0  0  0  0  0  0  0  0  0  0  0
   -0.7296    2.2736    8.0196 C   0  0  2  0  0  0  0  0  0  0  0  0
    0.5314    1.5961    7.9925 O   0  0  0  0  0  0  0  0  0  0  0  0
    0.9959    1.0541    6.7515 C   0  0  1  0  0  0  0  0  0  0  0  0
    0.2684   -0.3114    6.4179 C   0  0  1  0  0  0  0  0  0  0  0  0
   -1.1522   -0.1773    6.3909 O   0  0  0  0  0  0  0  0  0  0  0  0
    0.8547   -1.2151    5.2095 C   0  0  1  0  0  0  0  0  0  0  0  0
   -0.2998   -1.1434    4.1334 C   0  0  0  0  0  0  0  0  0  0  0  0
    2.1368   -0.4400    4.6418 C   0  0  2  0  0  0  0  0  0  0  0  0
    3.6276   -0.5023    5.2595 C   0  0  1  0  0  0  0  0  0  0  0  0
    4.1215   -1.3361    6.5369 C   0  0  0  0  0  0  0  0  0  0  0  0
    3.3219   -1.5292    7.8500 C   0  0  0  0  0  0  0  0  0  0  0  0
    3.8283   -1.3507    8.9507 O   0  0  0  0  0  0  0  0  0  0  0  0
    2.1245   -2.0305    7.6454 O   0  0  0  0  0  0  0  0  0  0  0  0
    1.6247   -3.2868    8.1049 C   0  0  1  0  0  0  0  0  0  0  0  0
    0.1071   -3.3204    7.7712 C   0  0  0  0  0  0  0  0  0  0  0  0
   -0.1890   -3.3911    6.2363 C   0  0  0  0  0  0  0  0  0  0  0  0
    0.9858   -2.9003    5.3188 C   0  0  1  0  0  0  0  0  0  0  0  0
    0.8180   -3.4930    4.0008 O   0  0  0  0  0  0  0  0  0  0  0  0
    1.7842   -2.8824    2.9158 O   0  0  0  0  0  0  0  0  0  0  0  0
    3.1748   -3.2985    3.0085 C   0  0  2  0  0  0  0  0  0  0  0  0
    3.7434   -3.2514    1.5742 C   0  0  0  0  0  0  0  0  0  0  0  0
    3.2835   -4.7503    3.5137 C   0  0  0  0  0  0  0  0  0  0  0  0
    2.5585   -5.0781    4.8297 C   0  0  0  0  0  0  0  0  0  0  0  0
    2.2127   -3.8765    5.7680 C   0  0  2  0  0  0  0  0  0  0  0  0
    2.2783   -4.3916    7.2662 C   0  0  0  0  0  0  0  0  0  0  0  0
    3.7277   -4.6592    7.7613 C   0  0  0  0  0  0  0  0  0  0  0  0
    1.5759   -5.7653    7.5138 C   0  0  0  0  0  0  0  0  0  0  0  0
    4.0856   -2.5480    3.8763 O   0  0  0  0  0  0  0  0  0  0  0  0
    4.3708   -1.1256    4.0253 C   0  0  1  0  0  0  0  0  0  0  0  0
    4.3582   -0.1952    2.7791 C   0  0  0  0  0  0  0  0  0  0  0  0
    3.0747    0.6585    2.5118 C   0  0  1  0  0  0  0  0  0  0  0  0
    2.5130    0.1350    1.3263 O   0  0  0  0  0  0  0  0  0  0  0  0
    2.0327    0.8453    3.7081 C   0  0  1  0  0  0  0  0  0  0  0  0
    0.8200    1.0598    3.0219 O   0  0  0  0  0  0  0  0  0  0  0  0
    2.1733    2.1497    4.5633 C   0  0  2  0  0  0  0  0  0  0  0  0
    2.0310    3.4389    3.6769 C   0  0  0  0  0  0  0  0  0  0  0  0
    3.6459    2.2128    5.0631 C   0  0  1  0  0  0  0  0  0  0  0  0
    4.0019    3.3596    6.0451 C   0  0  0  0  0  0  0  0  0  0  0  0
    4.2684    0.8996    5.5438 C   0  0  0  0  0  0  0  0  0  0  0  0
    5.3994    0.9871    6.0148 O   0  0  0  0  0  0  0  0  0  0  0  0
    1.1120    2.2302    5.7458 C   0  0  1  0  0  0  0  0  0  0  0  0
   -0.3080    2.7508    5.4671 C   0  0  0  0  0  0  0  0  0  0  0  0
   -0.9910    3.2009    6.7849 C   0  0  1  0  0  0  0  0  0  0  0  0
   -2.5048    3.3400    6.5471 C   0  0  0  0  0  0  0  0  0  0  0  0
   -0.5322    4.5104    7.0439 O   0  0  0  0  0  0  0  0  0  0  0  0
   -1.8016    3.5146    9.4754 H   0  0  0  0  0  0  0  0  0  0  0  0
   -0.0561    3.6948    9.5617 H   0  0  0  0  0  0  0  0  0  0  0  0
   -0.8269    2.2553   10.2019 H   0  0  0  0  0  0  0  0  0  0  0  0
   -1.4985    1.5091    8.0454 H   0  0  0  0  0  0  0  0  0  0  0  0
    2.0112    0.7942    7.0248 H   0  0  0  0  0  0  0  0  0  0  0  0
    0.3232   -0.8044    7.3645 H   0  0  0  0  0  0  0  0  0  0  0  0
   -1.3648    0.3708    5.6521 H   0  0  0  0  0  0  0  0  0  0  0  0
    0.0529   -1.3294    3.1232 H   0  0  0  0  0  0  0  0  0  0  0  0
   -0.8123   -0.1846    4.0702 H   0  0  0  0  0  0  0  0  0  0  0  0
   -1.1203   -1.8398    4.2907 H   0  0  0  0  0  0  0  0  0  0  0  0
    2.1748   -1.0518    3.7903 H   0  0  0  0  0  0  0  0  0  0  0  0
    4.5330   -2.2837    6.2164 H   0  0  0  0  0  0  0  0  0  0  0  0
    5.0627   -0.9634    6.9245 H   0  0  0  0  0  0  0  0  0  0  0  0
    1.7857   -3.4140    9.1748 H   0  0  0  0  0  0  0  0  0  0  0  0
   -0.3609   -4.1736    8.2548 H   0  0  0  0  0  0  0  0  0  0  0  0
   -0.3959   -2.4830    8.2446 H   0  0  0  0  0  0  0  0  0  0  0  0
   -0.4469   -4.4097    5.9402 H   0  0  0  0  0  0  0  0  0  0  0  0
   -1.1215   -2.8560    6.0681 H   0  0  0  0  0  0  0  0  0  0  0  0
    3.5138   -2.3131    1.0639 H   0  0  0  0  0  0  0  0  0  0  0  0
    3.3295   -4.0467    0.9496 H   0  0  0  0  0  0  0  0  0  0  0  0
    4.8293   -3.3793    1.5765 H   0  0  0  0  0  0  0  0  0  0  0  0
    2.9526   -5.4522    2.7465 H   0  0  0  0  0  0  0  0  0  0  0  0
    4.3507   -4.9604    3.6426 H   0  0  0  0  0  0  0  0  0  0  0  0
    1.6766   -5.6828    4.6197 H   0  0  0  0  0  0  0  0  0  0  0  0
    3.2422   -5.7578    5.3409 H   0  0  0  0  0  0  0  0  0  0  0  0
    3.0660   -3.2895    5.6600 H   0  0  0  0  0  0  0  0  0  0  0  0
    4.1266   -5.6073    7.3994 H   0  0  0  0  0  0  0  0  0  0  0  0
    3.7595   -4.6988    8.8517 H   0  0  0  0  0  0  0  0  0  0  0  0
    4.4495   -3.9108    7.4513 H   0  0  0  0  0  0  0  0  0  0  0  0
    2.1815   -6.6094    7.1781 H   0  0  0  0  0  0  0  0  0  0  0  0
    0.6208   -5.8807    7.0065 H   0  0  0  0  0  0  0  0  0  0  0  0
    1.3989   -5.9220    8.5789 H   0  0  0  0  0  0  0  0  0  0  0  0
    5.4245   -1.1767    4.3026 H   0  0  0  0  0  0  0  0  0  0  0  0
    5.1603    0.5236    2.9565 H   0  0  0  0  0  0  0  0  0  0  0  0
    4.7138   -0.7134    1.8887 H   0  0  0  0  0  0  0  0  0  0  0  0
    3.4091    1.6375    2.1782 H   0  0  0  0  0  0  0  0  0  0  0  0
    2.0022   -0.6338    1.5152 H   0  0  0  0  0  0  0  0  0  0  0  0
    0.9545    1.7704    2.4052 H   0  0  0  0  0  0  0  0  0  0  0  0
    1.9932    4.3444    4.2828 H   0  0  0  0  0  0  0  0  0  0  0  0
    1.1325    3.4727    3.0591 H   0  0  0  0  0  0  0  0  0  0  0  0
    2.8705    3.5768    2.9901 H   0  0  0  0  0  0  0  0  0  0  0  0
    4.2402    2.4312    4.1798 H   0  0  0  0  0  0  0  0  0  0  0  0
    5.0750    3.5556    6.0392 H   0  0  0  0  0  0  0  0  0  0  0  0
    3.7297    3.1115    7.0720 H   0  0  0  0  0  0  0  0  0  0  0  0
    3.5272    4.3071    5.7969 H   0  0  0  0  0  0  0  0  0  0  0  0
    1.5287    3.0323    6.3506 H   0  0  0  0  0  0  0  0  0  0  0  0
   -0.2995    3.5904    4.7730 H   0  0  0  0  0  0  0  0  0  0  0  0
   -0.8919    1.9767    4.9773 H   0  0  0  0  0  0  0  0  0  0  0  0
   -2.9574    2.3695    6.3274 H   0  0  0  0  0  0  0  0  0  0  0  0
   -2.7166    3.9973    5.7016 H   0  0  0  0  0  0  0  0  0  0  0  0
   -3.0086    3.7434    7.4270 H   0  0  0  0  0  0  0  0  0  0  0  0
    0.3852    4.4540    7.2511 H   0  0  0  0  0  0  0  0  0  0  0  0
  1  2  1  0
  1 47  1  0
  1 48  1  0
  1 49  1  0
  2 44  1  0
  2  3  1  0
  2 50  1  1
  3  4  1  0
  4 42  1  0
  4  5  1  0
  4 51  1  1
  5  6  1  0
  5  7  1  0
  5 52  1  1
  6 53  1  0
  7 18  1  0
  7  8  1  6
  7  9  1  0
  8 54  1  0
  8 55  1  0
  8 56  1  0
  9 34  1  0
  9 10  1  0
  9 57  1  6
 10 30  1  0
 10 40  1  1
 10 11  1  0
 11 12  1  0
 11 58  1  0
 11 59  1  0
 12 13  2  0
 12 14  1  0
 14 15  1  0
 15 26  1  0
 15 16  1  0
 15 60  1  1
 16 17  1  0
 16 61  1  0
 16 62  1  0
 17 18  1  0
 17 63  1  0
 17 64  1  0
 18 25  1  0
 18 19  1  6
 19 20  1  0
 20 21  1  0
 21 22  1  6
 21 23  1  0
 21 29  1  0
 22 65  1  0
 22 66  1  0
 22 67  1  0
 23 24  1  0
 23 68  1  0
 23 69  1  0
 24 25  1  0
 24 70  1  0
 24 71  1  0
 25 26  1  0
 25 72  1  1
 26 27  1  0
 26 28  1  0
 27 73  1  0
 27 74  1  0
 27 75  1  0
 28 76  1  0
 28 77  1  0
 28 78  1  0
 29 30  1  0
 30 31  1  0
 30 79  1  1
 31 32  1  0
 31 80  1  0
 31 81  1  0
 32 33  1  0
 32 34  1  0
 32 82  1  6
 33 83  1  0
 34 35  1  6
 34 36  1  0
 35 84  1  0
 36 37  1  6
 36 38  1  0
 36 42  1  0
 37 85  1  0
 37 86  1  0
 37 87  1  0
 38 39  1  0
 38 40  1  0
 38 88  1  6
 39 89  1  0
 39 90  1  0
 39 91  1  0
 40 41  2  0
 42 43  1  0
 42 92  1  1
 43 44  1  0
 43 93  1  0
 43 94  1  0
 44 45  1  0
 44 46  1  1
 45 95  1  0
 45 96  1  0
 45 97  1  0
 46 98  1  0
M  END
>  <i_m_ct_stereo_status>  (69) 
1

>  <s_m_source_file>  (69) 
/var/tmp/pbs.5083858.sched01/tmplcwk7gb1/30cq16h13y.sdf

>  <i_m_source_file_index>  (69) 
1

>  <i_lp_mmshare_version>  (69) 
48012

>  <i_f3d_flags>  (69) 
0

>  <s_epik_input>  (69) 
W0NIMl0xW0NAXShbQ0gzXSkoW09IXSlbQ0BIXShbQ0gzXSlPW0NAQEhdKFtDQEhdMltPSF0pW0NASF0xW0NAQF0oW0NIM10pKFtDQEBIXShbQ0gzXSlDMz1PKVtDQEBdNChbT0hdKVtDQEhdKFtPSF0pW0NIMl1bQ0BASF01T1tDQEBdKE9PNikoW0NIM10pW0NIMl1bQ0gyXVtDQEBIXShbQ0BAXTY3W0NAXTIoW0NIM10pW0NASF00W0NAXTM1OClDKFtDSDNdKShbQ0gzXSlbQ0BIXShbQ0gyXVtDSDJdNylPQyg9TylbQ0gyXTg=

>  <s_epik_cmdline>  (69) 
J2VwaWtfcHl0aG9uJywgJy1waHQnLCAnMi4wJywgJy1waCcsICc3LjAnLCAnLXRuJywgJzgnLCAnLW1hJywgJzIwMCcsICctaW1hZScsICc8aW5maWxlLm1hZT4nLCAnLW9tYWUnLCAnPG91dGZpbGUubWFlPic=

>  <r_lp_tautomer_probability>  (69) 
1

>  <r_epik_Ionization_Penalty>  (69) 
2.53348e-07

>  <r_epik_Ionization_Penalty_Charging>  (69) 
0

>  <r_epik_Ionization_Penalty_Neutral>  (69) 
2.53348e-07

>  <r_epik_State_Penalty>  (69) 
-0

>  <r_epik_Charging_Adjusted_Penalty>  (69) 
0

>  <i_epik_Tot_Q>  (69) 
0

>  <i_epik_Tot_abs_Q>  (69) 
0

>  <s_epik_Chemistry_Notes>  (69) 
This compound has an ester and may undergo hydrolysis at high or low pH.

>  <s_lp_Force_Field>  (69) 
OPLS3e

>  <r_lp_Energy>  (69) 
278.505

>  <b_lp_Chiralities_Consistent>  (69) 
1

>  <s_lp_Variant>  (69) 
22:0-1

>  <s_i_glide_gridfile>  (69) 
pfpi4k_grid

>  <i_i_glide_lignum>  (69) 
1

>  <i_i_glide_rotatable_bonds>  (69) 
4

>  <r_i_docking_score>  (69) 
-2.18817

>  <r_i_glide_ligand_efficiency>  (69) 
-0.0475688

>  <r_i_glide_ligand_efficiency_sa>  (69) 
-0.170441

>  <r_i_glide_ligand_efficiency_ln>  (69) 
-0.453164

>  <r_i_glide_gscore>  (69) 
-2.18817

>  <r_i_glide_lipo>  (69) 
-0.277697

>  <r_i_glide_hbond>  (69) 
0

>  <r_i_glide_metal>  (69) 
-0

>  <r_i_glide_rewards>  (69) 
-0.00668367

>  <r_i_glide_evdw>  (69) 
-29.0051

>  <r_i_glide_ecoul>  (69) 
-3.02354

>  <r_i_glide_erotb>  (69) 
0

>  <r_i_glide_esite>  (69) 
0

>  <r_i_glide_emodel>  (69) 
-36.2969

>  <r_i_glide_energy>  (69) 
-32.0286

>  <r_i_glide_einternal>  (69) 
0.167747

>  <r_i_glide_intrahb_reward>  (69) 
-0

>  <i_i_glide_confnum>  (69) 
1

>  <i_i_glide_posenum>  (69) 
10

>  <r_i_glide_eff_state_penalty>  (69) 
0

>  <ligand_id>  (69) 
22

>  <original_smiles>  (69) 
CC1OC2C(O)C3(C)C4C56CC(=O)OC7CCC38OOC(C)(CCC8C7(C)C)OC5CC(O)C4(O)C(C)(C(C)C6=O)C2CC1(C)O

>  <smiles>  (69) 
[H]OC1([H])C([H])([H])C2([H])OC3(C([H])([H])[H])OOC45C([H])([H])C([H])([H])C([H])(OC(=O)C([H])([H])C26C(=O)C([H])(C([H])([H])[H])C2(C([H])([H])[H])C7([H])C([H])([H])C(O[H])(C([H])([H])[H])C([H])(C([H])([H])[H])OC7([H])C([H])(O[H])C4(C([H])([H])[H])C6([H])C12O[H])C(C([H])([H])[H])(C([H])([H])[H])C5([H])C([H])([H])C3([H])[H]

$$$$
22:1:0
     RDKit          3D

 98105  0  0  1  0  0  0  0  0999 V2000
    6.1781   -1.8513    0.5014 C   0  0  0  0  0  0  0  0  0  0  0  0
    4.9547   -2.1443    1.3912 C   0  0  2  0  0  0  0  0  0  0  0  0
    4.8613   -3.5544    1.6625 O   0  0  0  0  0  0  0  0  0  0  0  0
    3.5705   -4.1413    1.8011 C   0  0  1  0  0  0  0  0  0  0  0  0
    3.6636   -5.7241    2.0756 C   0  0  1  0  0  0  0  0  0  0  0  0
    4.4562   -6.2080    1.0025 O   0  0  0  0  0  0  0  0  0  0  0  0
    4.0426   -6.3275    3.5597 C   0  0  1  0  0  0  0  0  0  0  0  0
    5.6034   -6.0527    3.5342 C   0  0  0  0  0  0  0  0  0  0  0  0
    3.1472   -5.3651    4.5008 C   0  0  1  0  0  0  0  0  0  0  0  0
    1.8422   -5.6080    5.3906 C   0  0  1  0  0  0  0  0  0  0  0  0
    0.6998   -6.6552    5.0087 C   0  0  0  0  0  0  0  0  0  0  0  0
    0.4359   -7.1304    3.5577 C   0  0  0  0  0  0  0  0  0  0  0  0
   -0.6924   -7.1043    3.0611 O   0  0  0  0  0  0  0  0  0  0  0  0
    1.5181   -7.5919    2.9450 O   0  0  0  0  0  0  0  0  0  0  0  0
    1.7463   -8.9357    2.5270 C   0  0  1  0  0  0  0  0  0  0  0  0
    3.0662   -8.9429    1.7156 C   0  0  0  0  0  0  0  0  0  0  0  0
    4.3504   -8.7574    2.6004 C   0  0  0  0  0  0  0  0  0  0  0  0
    4.0709   -7.9793    3.9076 C   0  0  1  0  0  0  0  0  0  0  0  0
    5.1323   -8.1639    4.8676 O   0  0  0  0  0  0  0  0  0  0  0  0
    4.9582   -7.1164    6.0044 O   0  0  0  0  0  0  0  0  0  0  0  0
    4.1775   -7.6522    7.0824 C   0  0  2  0  0  0  0  0  0  0  0  0
    4.8503   -7.2987    8.4237 C   0  0  0  0  0  0  0  0  0  0  0  0
    4.0696   -9.2127    7.0594 C   0  0  0  0  0  0  0  0  0  0  0  0
    3.5571   -9.8725    5.7719 C   0  0  0  0  0  0  0  0  0  0  0  0
    3.0015   -8.9314    4.6617 C   0  0  2  0  0  0  0  0  0  0  0  0
    1.9920   -9.7864    3.7798 C   0  0  0  0  0  0  0  0  0  0  0  0
    0.6564  -10.1194    4.4974 C   0  0  0  0  0  0  0  0  0  0  0  0
    2.4746  -11.2198    3.3931 C   0  0  0  0  0  0  0  0  0  0  0  0
    2.8079   -7.1949    7.1267 O   0  0  0  0  0  0  0  0  0  0  0  0
    2.3654   -5.8548    6.8398 C   0  0  1  0  0  0  0  0  0  0  0  0
    3.1395   -4.6349    7.4100 C   0  0  0  0  0  0  0  0  0  0  0  0
    4.0849   -3.8874    6.4368 C   0  0  1  0  0  0  0  0  0  0  0  0
    5.3800   -4.3634    6.7468 O   0  0  0  0  0  0  0  0  0  0  0  0
    3.7581   -3.9593    4.8868 C   0  0  1  0  0  0  0  0  0  0  0  0
    4.9866   -3.5462    4.3339 O   0  0  0  0  0  0  0  0  0  0  0  0
    2.8229   -2.8778    4.2312 C   0  0  2  0  0  0  0  0  0  0  0  0
    3.3421   -1.4229    4.5063 C   0  0  0  0  0  0  0  0  0  0  0  0
    1.4653   -2.9262    5.0054 C   0  0  1  0  0  0  0  0  0  0  0  0
    0.2988   -2.1091    4.3966 C   0  0  0  0  0  0  0  0  0  0  0  0
    0.9735   -4.2969    5.4701 C   0  0  0  0  0  0  0  0  0  0  0  0
   -0.0923   -4.3000    6.0894 O   0  0  0  0  0  0  0  0  0  0  0  0
    2.6357   -3.1612    2.6384 C   0  0  1  0  0  0  0  0  0  0  0  0
    2.3893   -1.9407    1.7132 C   0  0  0  0  0  0  0  0  0  0  0  0
    3.6373   -1.4174    0.9649 C   0  0  1  0  0  0  0  0  0  0  0  0
    3.7752    0.1081    1.1536 C   0  0  0  0  0  0  0  0  0  0  0  0
    3.4141   -1.6132   -0.4259 O   0  0  0  0  0  0  0  0  0  0  0  0
    6.3818   -0.7804    0.4374 H   0  0  0  0  0  0  0  0  0  0  0  0
    6.0669   -2.2329   -0.5160 H   0  0  0  0  0  0  0  0  0  0  0  0
    7.0720   -2.3060    0.9309 H   0  0  0  0  0  0  0  0  0  0  0  0
    5.2396   -1.7434    2.3565 H   0  0  0  0  0  0  0  0  0  0  0  0
    3.1268   -4.1155    0.7960 H   0  0  0  0  0  0  0  0  0  0  0  0
    2.6765   -6.0517    1.7885 H   0  0  0  0  0  0  0  0  0  0  0  0
    4.1155   -5.8568    0.1919 H   0  0  0  0  0  0  0  0  0  0  0  0
    6.0534   -5.8357    4.4991 H   0  0  0  0  0  0  0  0  0  0  0  0
    5.8893   -5.2265    2.9014 H   0  0  0  0  0  0  0  0  0  0  0  0
    6.1884   -6.8621    3.1002 H   0  0  0  0  0  0  0  0  0  0  0  0
    2.4094   -5.2025    3.7469 H   0  0  0  0  0  0  0  0  0  0  0  0
    0.7645   -7.4954    5.6890 H   0  0  0  0  0  0  0  0  0  0  0  0
   -0.2937   -6.3362    5.3128 H   0  0  0  0  0  0  0  0  0  0  0  0
    0.9246   -9.3090    1.9153 H   0  0  0  0  0  0  0  0  0  0  0  0
    3.1606   -9.8691    1.1552 H   0  0  0  0  0  0  0  0  0  0  0  0
    3.0047   -8.1917    0.9346 H   0  0  0  0  0  0  0  0  0  0  0  0
    4.8020   -9.7156    2.8684 H   0  0  0  0  0  0  0  0  0  0  0  0
    5.1440   -8.3276    1.9978 H   0  0  0  0  0  0  0  0  0  0  0  0
    5.2061   -6.2696    8.4678 H   0  0  0  0  0  0  0  0  0  0  0  0
    5.7275   -7.9173    8.6281 H   0  0  0  0  0  0  0  0  0  0  0  0
    4.1700   -7.4463    9.2648 H   0  0  0  0  0  0  0  0  0  0  0  0
    5.0248   -9.6679    7.3338 H   0  0  0  0  0  0  0  0  0  0  0  0
    3.3999   -9.4947    7.8795 H   0  0  0  0  0  0  0  0  0  0  0  0
    4.3280  -10.5381    5.3885 H   0  0  0  0  0  0  0  0  0  0  0  0
    2.7632  -10.5300    6.1143 H   0  0  0  0  0  0  0  0  0  0  0  0
    2.4099   -8.2868    5.2329 H   0  0  0  0  0  0  0  0  0  0  0  0
    0.7263  -10.9914    5.1583 H   0  0  0  0  0  0  0  0  0  0  0  0
   -0.1322  -10.3487    3.7744 H   0  0  0  0  0  0  0  0  0  0  0  0
    0.2677   -9.3350    5.1305 H   0  0  0  0  0  0  0  0  0  0  0  0
    2.4928  -11.9091    4.2446 H   0  0  0  0  0  0  0  0  0  0  0  0
    3.4594  -11.2917    2.9458 H   0  0  0  0  0  0  0  0  0  0  0  0
    1.7861  -11.6673    2.6741 H   0  0  0  0  0  0  0  0  0  0  0  0
    1.4756   -5.8860    7.4671 H   0  0  0  0  0  0  0  0  0  0  0  0
    2.3874   -3.9112    7.7211 H   0  0  0  0  0  0  0  0  0  0  0  0
    3.6145   -4.8658    8.3621 H   0  0  0  0  0  0  0  0  0  0  0  0
    4.1139   -2.8475    6.7589 H   0  0  0  0  0  0  0  0  0  0  0  0
    5.4520   -5.2699    6.4678 H   0  0  0  0  0  0  0  0  0  0  0  0
    4.9312   -3.5780    3.3866 H   0  0  0  0  0  0  0  0  0  0  0  0
    2.6880   -0.6358    4.1297 H   0  0  0  0  0  0  0  0  0  0  0  0
    4.3334   -1.1954    4.1167 H   0  0  0  0  0  0  0  0  0  0  0  0
    3.4063   -1.2148    5.5743 H   0  0  0  0  0  0  0  0  0  0  0  0
    1.6552   -2.4213    5.9538 H   0  0  0  0  0  0  0  0  0  0  0  0
   -0.5119   -1.9824    5.1151 H   0  0  0  0  0  0  0  0  0  0  0  0
   -0.1291   -2.6087    3.5296 H   0  0  0  0  0  0  0  0  0  0  0  0
    0.5799   -1.1021    4.0955 H   0  0  0  0  0  0  0  0  0  0  0  0
    1.6709   -3.6410    2.5977 H   0  0  0  0  0  0  0  0  0  0  0  0
    1.6383   -2.2349    0.9724 H   0  0  0  0  0  0  0  0  0  0  0  0
    1.9118   -1.1263    2.2440 H   0  0  0  0  0  0  0  0  0  0  0  0
    4.0252    0.3773    2.1791 H   0  0  0  0  0  0  0  0  0  0  0  0
    2.8499    0.6252    0.9039 H   0  0  0  0  0  0  0  0  0  0  0  0
    4.5476    0.5248    0.5094 H   0  0  0  0  0  0  0  0  0  0  0  0
    2.5194   -1.3405   -0.6288 H   0  0  0  0  0  0  0  0  0  0  0  0
  1  2  1  0
  1 47  1  0
  1 48  1  0
  1 49  1  0
  2 44  1  0
  2  3  1  0
  2 50  1  1
  3  4  1  0
  4 42  1  0
  4  5  1  0
  4 51  1  6
  5  6  1  0
  5  7  1  0
  5 52  1  6
  6 53  1  0
  7 18  1  0
  7  8  1  1
  7  9  1  0
  8 54  1  0
  8 55  1  0
  8 56  1  0
  9 34  1  0
  9 10  1  0
  9 57  1  6
 10 30  1  0
 10 40  1  1
 10 11  1  0
 11 12  1  0
 11 58  1  0
 11 59  1  0
 12 13  2  0
 12 14  1  0
 14 15  1  0
 15 26  1  0
 15 16  1  0
 15 60  1  6
 16 17  1  0
 16 61  1  0
 16 62  1  0
 17 18  1  0
 17 63  1  0
 17 64  1  0
 18 25  1  0
 18 19  1  1
 19 20  1  0
 20 21  1  0
 21 22  1  1
 21 23  1  0
 21 29  1  0
 22 65  1  0
 22 66  1  0
 22 67  1  0
 23 24  1  0
 23 68  1  0
 23 69  1  0
 24 25  1  0
 24 70  1  0
 24 71  1  0
 25 26  1  0
 25 72  1  1
 26 27  1  0
 26 28  1  0
 27 73  1  0
 27 74  1  0
 27 75  1  0
 28 76  1  0
 28 77  1  0
 28 78  1  0
 29 30  1  0
 30 31  1  0
 30 79  1  1
 31 32  1  0
 31 80  1  0
 31 81  1  0
 32 33  1  0
 32 34  1  0
 32 82  1  1
 33 83  1  0
 34 35  1  6
 34 36  1  0
 35 84  1  0
 36 37  1  6
 36 38  1  0
 36 42  1  0
 37 85  1  0
 37 86  1  0
 37 87  1  0
 38 39  1  0
 38 40  1  0
 38 88  1  1
 39 89  1  0
 39 90  1  0
 39 91  1  0
 40 41  2  0
 42 43  1  0
 42 92  1  1
 43 44  1  0
 43 93  1  0
 43 94  1  0
 44 45  1  0
 44 46  1  6
 45 95  1  0
 45 96  1  0
 45 97  1  0
 46 98  1  0
M  END
>  <i_m_ct_stereo_status>  (70) 
1

>  <s_m_source_file>  (70) 
/var/tmp/pbs.5083858.sched01/tmplcwk7gb1/30cq16h13y.sdf

>  <i_m_source_file_index>  (70) 
2

>  <i_lp_mmshare_version>  (70) 
48012

>  <i_f3d_flags>  (70) 
0

>  <s_epik_input>  (70) 
W0NIMl0xW0NAXShbQ0gzXSkoW09IXSlbQ0BIXShbQ0gzXSlPW0NAQEhdKFtDQEhdMltPSF0pW0NASF0xW0NAQF0oW0NIM10pKFtDQEBIXShbQ0gzXSlDMz1PKVtDQEBdNChbT0hdKVtDQEhdKFtPSF0pW0NIMl1bQ0BASF01T1tDQEBdKE9PNikoW0NIM10pW0NIMl1bQ0gyXVtDQEBIXShbQ0BAXTY3W0NAXTIoW0NIM10pW0NASF00W0NAXTM1OClDKFtDSDNdKShbQ0gzXSlbQ0BIXShbQ0gyXVtDSDJdNylPQyg9TylbQ0gyXTg=

>  <s_epik_cmdline>  (70) 
J2VwaWtfcHl0aG9uJywgJy1waHQnLCAnMi4wJywgJy1waCcsICc3LjAnLCAnLXRuJywgJzgnLCAnLW1hJywgJzIwMCcsICctaW1hZScsICc8aW5maWxlLm1hZT4nLCAnLW9tYWUnLCAnPG91dGZpbGUubWFlPic=

>  <r_lp_tautomer_probability>  (70) 
1

>  <r_epik_Ionization_Penalty>  (70) 
2.53348e-07

>  <r_epik_Ionization_Penalty_Charging>  (70) 
0

>  <r_epik_Ionization_Penalty_Neutral>  (70) 
2.53348e-07

>  <r_epik_State_Penalty>  (70) 
-0

>  <r_epik_Charging_Adjusted_Penalty>  (70) 
0

>  <i_epik_Tot_Q>  (70) 
0

>  <i_epik_Tot_abs_Q>  (70) 
0

>  <s_epik_Chemistry_Notes>  (70) 
This compound has an ester and may undergo hydrolysis at high or low pH.

>  <s_lp_Force_Field>  (70) 
OPLS3e

>  <r_lp_Energy>  (70) 
280.868

>  <b_lp_Chiralities_Consistent>  (70) 
1

>  <s_lp_Variant>  (70) 
22:0-2

>  <s_i_glide_gridfile>  (70) 
pfpi4k_grid

>  <i_i_glide_lignum>  (70) 
2

>  <i_i_glide_rotatable_bonds>  (70) 
4

>  <r_i_docking_score>  (70) 
-3.89869

>  <r_i_glide_ligand_efficiency>  (70) 
-0.0847541

>  <r_i_glide_ligand_efficiency_sa>  (70) 
-0.303678

>  <r_i_glide_ligand_efficiency_ln>  (70) 
-0.807409

>  <r_i_glide_gscore>  (70) 
-3.89869

>  <r_i_glide_lipo>  (70) 
-0.269827

>  <r_i_glide_hbond>  (70) 
-0.105697

>  <r_i_glide_metal>  (70) 
-0

>  <r_i_glide_rewards>  (70) 
-0.5

>  <r_i_glide_evdw>  (70) 
-35.1186

>  <r_i_glide_ecoul>  (70) 
-8.21199

>  <r_i_glide_erotb>  (70) 
0

>  <r_i_glide_esite>  (70) 
-0.035434

>  <r_i_glide_emodel>  (70) 
-58.4959

>  <r_i_glide_energy>  (70) 
-43.3306

>  <r_i_glide_einternal>  (70) 
0.644641

>  <r_i_glide_intrahb_reward>  (70) 
-0.5

>  <i_i_glide_confnum>  (70) 
1

>  <i_i_glide_posenum>  (70) 
18

>  <r_i_glide_eff_state_penalty>  (70) 
0

>  <ligand_id>  (70) 
22

>  <original_smiles>  (70) 
CC1OC2C(O)C3(C)C4C56CC(=O)OC7CCC38OOC(C)(CCC8C7(C)C)OC5CC(O)C4(O)C(C)(C(C)C6=O)C2CC1(C)O

>  <smiles>  (70) 
[H]OC1([H])C([H])([H])C2([H])OC3(C([H])([H])[H])OOC45C([H])([H])C([H])([H])C([H])(OC(=O)C([H])([H])C26C(=O)C([H])(C([H])([H])[H])C2(C([H])([H])[H])C7([H])C([H])([H])C(O[H])(C([H])([H])[H])C([H])(C([H])([H])[H])OC7([H])C([H])(O[H])C4(C([H])([H])[H])C6([H])C12O[H])C(C([H])([H])[H])(C([H])([H])[H])C5([H])C([H])([H])C3([H])[H]

$$$$
22:1:1
     RDKit          3D

 98105  0  0  1  0  0  0  0  0999 V2000
    6.1891   -1.8438    0.4831 C   0  0  0  0  0  0  0  0  0  0  0  0
    4.9697   -2.1429    1.3784 C   0  0  2  0  0  0  0  0  0  0  0  0
    4.8686   -3.5666    1.5431 O   0  0  0  0  0  0  0  0  0  0  0  0
    3.5828   -4.1339    1.8049 C   0  0  1  0  0  0  0  0  0  0  0  0
    3.6680   -5.7233    2.0707 C   0  0  1  0  0  0  0  0  0  0  0  0
    4.4395   -6.2154    0.9845 O   0  0  0  0  0  0  0  0  0  0  0  0
    4.0564   -6.3322    3.5486 C   0  0  1  0  0  0  0  0  0  0  0  0
    5.6158   -6.0553    3.5066 C   0  0  0  0  0  0  0  0  0  0  0  0
    3.1712   -5.3662    4.5054 C   0  0  1  0  0  0  0  0  0  0  0  0
    1.8742   -5.6024    5.4085 C   0  0  1  0  0  0  0  0  0  0  0  0
    0.7196   -6.6478    5.0300 C   0  0  0  0  0  0  0  0  0  0  0  0
    0.4376   -7.1123    3.5774 C   0  0  0  0  0  0  0  0  0  0  0  0
   -0.6978   -7.0830    3.0989 O   0  0  0  0  0  0  0  0  0  0  0  0
    1.5095   -7.5720    2.9480 O   0  0  0  0  0  0  0  0  0  0  0  0
    1.7276   -8.9217    2.5295 C   0  0  1  0  0  0  0  0  0  0  0  0
    3.0448   -8.9315    1.7005 C   0  0  0  0  0  0  0  0  0  0  0  0
    4.3391   -8.7606    2.5694 C   0  0  0  0  0  0  0  0  0  0  0  0
    4.0664   -7.9779    3.8874 C   0  0  1  0  0  0  0  0  0  0  0  0
    5.1452   -8.1664    4.8281 O   0  0  0  0  0  0  0  0  0  0  0  0
    4.9955   -7.1453    6.0051 O   0  0  0  0  0  0  0  0  0  0  0  0
    4.2097   -7.6849    7.0750 C   0  0  2  0  0  0  0  0  0  0  0  0
    4.9030   -7.3233    8.4082 C   0  0  0  0  0  0  0  0  0  0  0  0
    4.0944   -9.2322    7.0424 C   0  0  0  0  0  0  0  0  0  0  0  0
    3.5667   -9.8849    5.7569 C   0  0  0  0  0  0  0  0  0  0  0  0
    3.0063   -8.9400    4.6531 C   0  0  2  0  0  0  0  0  0  0  0  0
    1.9831   -9.7811    3.7753 C   0  0  0  0  0  0  0  0  0  0  0  0
    0.6491  -10.1044    4.5081 C   0  0  0  0  0  0  0  0  0  0  0  0
    2.4533  -11.2183    3.3743 C   0  0  0  0  0  0  0  0  0  0  0  0
    2.8533   -7.2048    7.1226 O   0  0  0  0  0  0  0  0  0  0  0  0
    2.4097   -5.8589    6.8515 C   0  0  1  0  0  0  0  0  0  0  0  0
    3.2025   -4.6483    7.4178 C   0  0  0  0  0  0  0  0  0  0  0  0
    4.1458   -3.9069    6.4319 C   0  0  1  0  0  0  0  0  0  0  0  0
    5.4500   -4.3947    6.6805 O   0  0  0  0  0  0  0  0  0  0  0  0
    3.7880   -3.9617    4.8860 C   0  0  1  0  0  0  0  0  0  0  0  0
    5.0047   -3.5503    4.3164 O   0  0  0  0  0  0  0  0  0  0  0  0
    2.8539   -2.8714    4.2449 C   0  0  2  0  0  0  0  0  0  0  0  0
    3.3917   -1.4188    4.5285 C   0  0  0  0  0  0  0  0  0  0  0  0
    1.5061   -2.9155    5.0342 C   0  0  1  0  0  0  0  0  0  0  0  0
    0.3350   -2.0916    4.4405 C   0  0  0  0  0  0  0  0  0  0  0  0
    1.0014   -4.2859    5.5113 C   0  0  0  0  0  0  0  0  0  0  0  0
   -0.0523   -4.2882    6.1273 O   0  0  0  0  0  0  0  0  0  0  0  0
    2.6579   -3.1472    2.6524 C   0  0  1  0  0  0  0  0  0  0  0  0
    2.4087   -1.9202    1.7379 C   0  0  0  0  0  0  0  0  0  0  0  0
    3.6509   -1.4004    0.9748 C   0  0  1  0  0  0  0  0  0  0  0  0
    3.7991    0.1215    1.1704 C   0  0  0  0  0  0  0  0  0  0  0  0
    3.4168   -1.5750   -0.4162 O   0  0  0  0  0  0  0  0  0  0  0  0
    6.3953   -0.7757    0.4273 H   0  0  0  0  0  0  0  0  0  0  0  0
    6.0623   -2.2232   -0.5292 H   0  0  0  0  0  0  0  0  0  0  0  0
    7.0813   -2.3142    0.9046 H   0  0  0  0  0  0  0  0  0  0  0  0
    5.2569   -1.7844    2.3570 H   0  0  0  0  0  0  0  0  0  0  0  0
    3.1076   -4.1088    0.8204 H   0  0  0  0  0  0  0  0  0  0  0  0
    2.6708   -6.0324    1.7965 H   0  0  0  0  0  0  0  0  0  0  0  0
    4.0902   -5.8469    0.1836 H   0  0  0  0  0  0  0  0  0  0  0  0
    6.0832   -5.8627    4.4688 H   0  0  0  0  0  0  0  0  0  0  0  0
    5.8948   -5.2150    2.8754 H   0  0  0  0  0  0  0  0  0  0  0  0
    6.1876   -6.8596    3.0558 H   0  0  0  0  0  0  0  0  0  0  0  0
    2.4265   -5.1942    3.7602 H   0  0  0  0  0  0  0  0  0  0  0  0
    0.7867   -7.4907    5.7065 H   0  0  0  0  0  0  0  0  0  0  0  0
   -0.2678   -6.3249    5.3451 H   0  0  0  0  0  0  0  0  0  0  0  0
    0.8984   -9.2852    1.9254 H   0  0  0  0  0  0  0  0  0  0  0  0
    3.1253   -9.8555    1.1382 H   0  0  0  0  0  0  0  0  0  0  0  0
    2.9725   -8.1763    0.9228 H   0  0  0  0  0  0  0  0  0  0  0  0
    4.7758   -9.7232    2.8328 H   0  0  0  0  0  0  0  0  0  0  0  0
    5.1312   -8.3292    1.9658 H   0  0  0  0  0  0  0  0  0  0  0  0
    5.2669   -6.2941    8.4471 H   0  0  0  0  0  0  0  0  0  0  0  0
    5.7780   -7.9522    8.5984 H   0  0  0  0  0  0  0  0  0  0  0  0
    4.2287   -7.4702    9.2531 H   0  0  0  0  0  0  0  0  0  0  0  0
    5.0502   -9.6945    7.2989 H   0  0  0  0  0  0  0  0  0  0  0  0
    3.4321   -9.5112    7.8658 H   0  0  0  0  0  0  0  0  0  0  0  0
    4.3262  -10.5497    5.3609 H   0  0  0  0  0  0  0  0  0  0  0  0
    2.7696  -10.5418    6.1028 H   0  0  0  0  0  0  0  0  0  0  0  0
    2.4296   -8.2852    5.2252 H   0  0  0  0  0  0  0  0  0  0  0  0
    0.7235  -10.9763    5.1624 H   0  0  0  0  0  0  0  0  0  0  0  0
   -0.1446  -10.3248    3.7877 H   0  0  0  0  0  0  0  0  0  0  0  0
    0.2757   -9.3186    5.1505 H   0  0  0  0  0  0  0  0  0  0  0  0
    2.4777  -11.9025    4.2219 H   0  0  0  0  0  0  0  0  0  0  0  0
    3.4355  -11.2903    2.9128 H   0  0  0  0  0  0  0  0  0  0  0  0
    1.7516  -11.6512    2.6641 H   0  0  0  0  0  0  0  0  0  0  0  0
    1.5242   -5.8922    7.4864 H   0  0  0  0  0  0  0  0  0  0  0  0
    2.4565   -3.9207    7.7411 H   0  0  0  0  0  0  0  0  0  0  0  0
    3.6864   -4.8904    8.3674 H   0  0  0  0  0  0  0  0  0  0  0  0
    4.1802   -2.8715    6.7663 H   0  0  0  0  0  0  0  0  0  0  0  0
    5.4645   -5.3379    6.5532 H   0  0  0  0  0  0  0  0  0  0  0  0
    5.6730   -4.1394    4.6348 H   0  0  0  0  0  0  0  0  0  0  0  0
    2.7357   -0.6308    4.1544 H   0  0  0  0  0  0  0  0  0  0  0  0
    4.3763   -1.2017    4.1258 H   0  0  0  0  0  0  0  0  0  0  0  0
    3.4670   -1.2165    5.6010 H   0  0  0  0  0  0  0  0  0  0  0  0
    1.7112   -2.4223    5.9815 H   0  0  0  0  0  0  0  0  0  0  0  0
   -0.4640   -1.9597    5.1687 H   0  0  0  0  0  0  0  0  0  0  0  0
   -0.1054   -2.5885    3.5780 H   0  0  0  0  0  0  0  0  0  0  0  0
    0.6234   -1.0878    4.1398 H   0  0  0  0  0  0  0  0  0  0  0  0
    1.6846   -3.6346    2.6160 H   0  0  0  0  0  0  0  0  0  0  0  0
    1.6534   -2.2098    1.0105 H   0  0  0  0  0  0  0  0  0  0  0  0
    1.9302   -1.1092    2.2748 H   0  0  0  0  0  0  0  0  0  0  0  0
    4.0560    0.3841    2.1937 H   0  0  0  0  0  0  0  0  0  0  0  0
    2.8768    0.6450    0.9185 H   0  0  0  0  0  0  0  0  0  0  0  0
    4.5716    0.5297    0.5200 H   0  0  0  0  0  0  0  0  0  0  0  0
    2.5224   -1.3025   -0.6080 H   0  0  0  0  0  0  0  0  0  0  0  0
  1  2  1  0
  1 47  1  0
  1 48  1  0
  1 49  1  0
  2 44  1  0
  2  3  1  0
  2 50  1  1
  3  4  1  0
  4 42  1  0
  4  5  1  0
  4 51  1  6
  5  6  1  0
  5  7  1  0
  5 52  1  6
  6 53  1  0
  7 18  1  0
  7  8  1  1
  7  9  1  0
  8 54  1  0
  8 55  1  0
  8 56  1  0
  9 34  1  0
  9 10  1  0
  9 57  1  6
 10 30  1  0
 10 40  1  1
 10 11  1  0
 11 12  1  0
 11 58  1  0
 11 59  1  0
 12 13  2  0
 12 14  1  0
 14 15  1  0
 15 26  1  0
 15 16  1  0
 15 60  1  6
 16 17  1  0
 16 61  1  0
 16 62  1  0
 17 18  1  0
 17 63  1  0
 17 64  1  0
 18 25  1  0
 18 19  1  1
 19 20  1  0
 20 21  1  0
 21 22  1  1
 21 23  1  0
 21 29  1  0
 22 65  1  0
 22 66  1  0
 22 67  1  0
 23 24  1  0
 23 68  1  0
 23 69  1  0
 24 25  1  0
 24 70  1  0
 24 71  1  0
 25 26  1  0
 25 72  1  1
 26 27  1  0
 26 28  1  0
 27 73  1  0
 27 74  1  0
 27 75  1  0
 28 76  1  0
 28 77  1  0
 28 78  1  0
 29 30  1  0
 30 31  1  0
 30 79  1  1
 31 32  1  0
 31 80  1  0
 31 81  1  0
 32 33  1  0
 32 34  1  0
 32 82  1  1
 33 83  1  0
 34 35  1  6
 34 36  1  0
 35 84  1  0
 36 37  1  6
 36 38  1  0
 36 42  1  0
 37 85  1  0
 37 86  1  0
 37 87  1  0
 38 39  1  0
 38 40  1  0
 38 88  1  1
 39 89  1  0
 39 90  1  0
 39 91  1  0
 40 41  2  0
 42 43  1  0
 42 92  1  1
 43 44  1  0
 43 93  1  0
 43 94  1  0
 44 45  1  0
 44 46  1  6
 45 95  1  0
 45 96  1  0
 45 97  1  0
 46 98  1  0
M  END
>  <i_m_ct_stereo_status>  (71) 
1

>  <s_m_source_file>  (71) 
/var/tmp/pbs.5083858.sched01/tmplcwk7gb1/30cq16h13y.sdf

>  <i_m_source_file_index>  (71) 
2

>  <i_lp_mmshare_version>  (71) 
48012

>  <i_f3d_flags>  (71) 
0

>  <s_epik_input>  (71) 
W0NIMl0xW0NAXShbQ0gzXSkoW09IXSlbQ0BIXShbQ0gzXSlPW0NAQEhdKFtDQEhdMltPSF0pW0NASF0xW0NAQF0oW0NIM10pKFtDQEBIXShbQ0gzXSlDMz1PKVtDQEBdNChbT0hdKVtDQEhdKFtPSF0pW0NIMl1bQ0BASF01T1tDQEBdKE9PNikoW0NIM10pW0NIMl1bQ0gyXVtDQEBIXShbQ0BAXTY3W0NAXTIoW0NIM10pW0NASF00W0NAXTM1OClDKFtDSDNdKShbQ0gzXSlbQ0BIXShbQ0gyXVtDSDJdNylPQyg9TylbQ0gyXTg=

>  <s_epik_cmdline>  (71) 
J2VwaWtfcHl0aG9uJywgJy1waHQnLCAnMi4wJywgJy1waCcsICc3LjAnLCAnLXRuJywgJzgnLCAnLW1hJywgJzIwMCcsICctaW1hZScsICc8aW5maWxlLm1hZT4nLCAnLW9tYWUnLCAnPG91dGZpbGUubWFlPic=

>  <r_lp_tautomer_probability>  (71) 
1

>  <r_epik_Ionization_Penalty>  (71) 
2.53348e-07

>  <r_epik_Ionization_Penalty_Charging>  (71) 
0

>  <r_epik_Ionization_Penalty_Neutral>  (71) 
2.53348e-07

>  <r_epik_State_Penalty>  (71) 
-0

>  <r_epik_Charging_Adjusted_Penalty>  (71) 
0

>  <i_epik_Tot_Q>  (71) 
0

>  <i_epik_Tot_abs_Q>  (71) 
0

>  <s_epik_Chemistry_Notes>  (71) 
This compound has an ester and may undergo hydrolysis at high or low pH.

>  <s_lp_Force_Field>  (71) 
OPLS3e

>  <r_lp_Energy>  (71) 
280.868

>  <b_lp_Chiralities_Consistent>  (71) 
1

>  <s_lp_Variant>  (71) 
22:0-2

>  <s_i_glide_gridfile>  (71) 
pfpi4k_grid

>  <i_i_glide_lignum>  (71) 
2

>  <i_i_glide_rotatable_bonds>  (71) 
4

>  <r_i_docking_score>  (71) 
-3.82795

>  <r_i_glide_ligand_efficiency>  (71) 
-0.0832164

>  <r_i_glide_ligand_efficiency_sa>  (71) 
-0.298168

>  <r_i_glide_ligand_efficiency_ln>  (71) 
-0.79276

>  <r_i_glide_gscore>  (71) 
-3.82795

>  <r_i_glide_lipo>  (71) 
-0.265713

>  <r_i_glide_hbond>  (71) 
-0.109393

>  <r_i_glide_metal>  (71) 
-0

>  <r_i_glide_rewards>  (71) 
-0.5

>  <r_i_glide_evdw>  (71) 
-35.2235

>  <r_i_glide_ecoul>  (71) 
-7.71005

>  <r_i_glide_erotb>  (71) 
0

>  <r_i_glide_esite>  (71) 
-0.0351643

>  <r_i_glide_emodel>  (71) 
-58.0209

>  <r_i_glide_energy>  (71) 
-42.9336

>  <r_i_glide_einternal>  (71) 
0.57081

>  <r_i_glide_intrahb_reward>  (71) 
-0.5

>  <i_i_glide_confnum>  (71) 
2

>  <i_i_glide_posenum>  (71) 
26

>  <r_i_glide_eff_state_penalty>  (71) 
0

>  <ligand_id>  (71) 
22

>  <original_smiles>  (71) 
CC1OC2C(O)C3(C)C4C56CC(=O)OC7CCC38OOC(C)(CCC8C7(C)C)OC5CC(O)C4(O)C(C)(C(C)C6=O)C2CC1(C)O

>  <smiles>  (71) 
[H]OC1([H])C([H])([H])C2([H])OC3(C([H])([H])[H])OOC45C([H])([H])C([H])([H])C([H])(OC(=O)C([H])([H])C26C(=O)C([H])(C([H])([H])[H])C2(C([H])([H])[H])C7([H])C([H])([H])C(O[H])(C([H])([H])[H])C([H])(C([H])([H])[H])OC7([H])C([H])(O[H])C4(C([H])([H])[H])C6([H])C12O[H])C(C([H])([H])[H])(C([H])([H])[H])C5([H])C([H])([H])C3([H])[H]

$$$$
22:1:2
     RDKit          3D

 98105  0  0  1  0  0  0  0  0999 V2000
    6.9805   -3.3281   -0.7359 C   0  0  0  0  0  0  0  0  0  0  0  0
    5.7679   -3.2671    0.2037 C   0  0  2  0  0  0  0  0  0  0  0  0
    5.4390   -4.6034    0.6164 O   0  0  0  0  0  0  0  0  0  0  0  0
    4.0846   -4.8819    0.9737 C   0  0  1  0  0  0  0  0  0  0  0  0
    3.9108   -6.3840    1.5216 C   0  0  1  0  0  0  0  0  0  0  0  0
    4.5499   -7.1747    0.5388 O   0  0  0  0  0  0  0  0  0  0  0  0
    4.2494   -6.7918    3.0798 C   0  0  1  0  0  0  0  0  0  0  0  0
    5.8339   -6.8140    2.9728 C   0  0  0  0  0  0  0  0  0  0  0  0
    3.5696   -5.5406    3.8566 C   0  0  1  0  0  0  0  0  0  0  0  0
    2.2924   -5.3918    4.8016 C   0  0  1  0  0  0  0  0  0  0  0  0
    0.9726   -6.2652    4.6219 C   0  0  0  0  0  0  0  0  0  0  0  0
    0.5591   -6.9171    3.2729 C   0  0  0  0  0  0  0  0  0  0  0  0
   -0.5692   -6.7885    2.8120 O   0  0  0  0  0  0  0  0  0  0  0  0
    1.5171   -7.6550    2.7359 O   0  0  0  0  0  0  0  0  0  0  0  0
    1.4856   -9.0673    2.5538 C   0  0  1  0  0  0  0  0  0  0  0  0
    2.7451   -9.4413    1.7407 C   0  0  0  0  0  0  0  0  0  0  0  0
    4.0823   -9.3588    2.5476 C   0  0  0  0  0  0  0  0  0  0  0  0
    4.0066   -8.3360    3.7049 C   0  0  1  0  0  0  0  0  0  0  0  0
    5.0676   -8.5461    4.6625 O   0  0  0  0  0  0  0  0  0  0  0  0
    5.1311   -7.3172    5.6102 O   0  0  0  0  0  0  0  0  0  0  0  0
    4.3180   -7.5195    6.7724 C   0  0  2  0  0  0  0  0  0  0  0  0
    5.1090   -7.0736    8.0177 C   0  0  0  0  0  0  0  0  0  0  0  0
    3.9411   -9.0152    7.0177 C   0  0  0  0  0  0  0  0  0  0  0  0
    3.2594   -9.7758    5.8712 C   0  0  0  0  0  0  0  0  0  0  0  0
    2.8247   -8.9462    4.6261 C   0  0  2  0  0  0  0  0  0  0  0  0
    1.6398   -9.7356    3.9218 C   0  0  0  0  0  0  0  0  0  0  0  0
    0.3092   -9.6833    4.7105 C   0  0  0  0  0  0  0  0  0  0  0  0
    1.8350  -11.2803    3.7679 C   0  0  0  0  0  0  0  0  0  0  0  0
    3.0543   -6.8196    6.7611 O   0  0  0  0  0  0  0  0  0  0  0  0
    2.8390   -5.4865    6.2615 C   0  0  1  0  0  0  0  0  0  0  0  0
    3.8494   -4.3539    6.5965 C   0  0  0  0  0  0  0  0  0  0  0  0
    4.8577   -3.9642    5.4819 C   0  0  1  0  0  0  0  0  0  0  0  0
    6.0759   -4.6239    5.7813 O   0  0  0  0  0  0  0  0  0  0  0  0
    4.4188   -4.2231    3.9828 C   0  0  1  0  0  0  0  0  0  0  0  0
    5.6369   -4.1587    3.3118 O   0  0  0  0  0  0  0  0  0  0  0  0
    3.6732   -3.1102    3.1672 C   0  0  2  0  0  0  0  0  0  0  0  0
    4.4618   -1.7532    3.1853 C   0  0  0  0  0  0  0  0  0  0  0  0
    2.3711   -2.7853    3.9635 C   0  0  1  0  0  0  0  0  0  0  0  0
    1.3446   -1.8796    3.2453 C   0  0  0  0  0  0  0  0  0  0  0  0
    1.6665   -3.9493    4.6702 C   0  0  0  0  0  0  0  0  0  0  0  0
    0.6482   -3.6609    5.2963 O   0  0  0  0  0  0  0  0  0  0  0  0
    3.3704   -3.6189    1.6468 C   0  0  1  0  0  0  0  0  0  0  0  0
    3.2919   -2.5443    0.5311 C   0  0  0  0  0  0  0  0  0  0  0  0
    4.5809   -2.3896   -0.3140 C   0  0  1  0  0  0  0  0  0  0  0  0
    4.9953   -0.9090   -0.3952 C   0  0  0  0  0  0  0  0  0  0  0  0
    4.2835   -2.7400   -1.6494 O   0  0  0  0  0  0  0  0  0  0  0  0
    7.3644   -2.3396   -0.9874 H   0  0  0  0  0  0  0  0  0  0  0  0
    6.7439   -3.8374   -1.6729 H   0  0  0  0  0  0  0  0  0  0  0  0
    7.8001   -3.8679   -0.2584 H   0  0  0  0  0  0  0  0  0  0  0  0
    6.1511   -2.7954    1.1005 H   0  0  0  0  0  0  0  0  0  0  0  0
    3.5861   -4.9491   -0.0004 H   0  0  0  0  0  0  0  0  0  0  0  0
    2.8688   -6.5701    1.3085 H   0  0  0  0  0  0  0  0  0  0  0  0
    5.4740   -6.9706    0.5709 H   0  0  0  0  0  0  0  0  0  0  0  0
    6.3665   -6.5474    3.8815 H   0  0  0  0  0  0  0  0  0  0  0  0
    6.2315   -6.1590    2.2073 H   0  0  0  0  0  0  0  0  0  0  0  0
    6.2431   -7.7760    2.6698 H   0  0  0  0  0  0  0  0  0  0  0  0
    2.8390   -5.3731    3.0979 H   0  0  0  0  0  0  0  0  0  0  0  0
    0.9239   -6.9778    5.4343 H   0  0  0  0  0  0  0  0  0  0  0  0
    0.0641   -5.7292    4.8800 H   0  0  0  0  0  0  0  0  0  0  0  0
    0.5824   -9.3833    2.0319 H   0  0  0  0  0  0  0  0  0  0  0  0
    2.6462  -10.4427    1.3476 H   0  0  0  0  0  0  0  0  0  0  0  0
    2.7777   -8.8270    0.8545 H   0  0  0  0  0  0  0  0  0  0  0  0
    4.3639  -10.3291    2.9642 H   0  0  0  0  0  0  0  0  0  0  0  0
    4.9061   -9.1912    1.8599 H   0  0  0  0  0  0  0  0  0  0  0  0
    5.6412   -6.1310    7.8763 H   0  0  0  0  0  0  0  0  0  0  0  0
    5.8737   -7.7987    8.3064 H   0  0  0  0  0  0  0  0  0  0  0  0
    4.4540   -6.9559    8.8838 H   0  0  0  0  0  0  0  0  0  0  0  0
    4.8157   -9.5835    7.3431 H   0  0  0  0  0  0  0  0  0  0  0  0
    3.2717   -9.0321    7.8854 H   0  0  0  0  0  0  0  0  0  0  0  0
    3.8815  -10.6250    5.5888 H   0  0  0  0  0  0  0  0  0  0  0  0
    2.3779  -10.2181    6.3341 H   0  0  0  0  0  0  0  0  0  0  0  0
    2.3828   -8.1202    5.0878 H   0  0  0  0  0  0  0  0  0  0  0  0
    0.2571  -10.4412    5.5000 H   0  0  0  0  0  0  0  0  0  0  0  0
   -0.5399   -9.8711    4.0477 H   0  0  0  0  0  0  0  0  0  0  0  0
    0.0968   -8.7511    5.2137 H   0  0  0  0  0  0  0  0  0  0  0  0
    1.7745  -11.8128    4.7237 H   0  0  0  0  0  0  0  0  0  0  0  0
    2.7745  -11.6001    3.3304 H   0  0  0  0  0  0  0  0  0  0  0  0
    1.0513  -11.7092    3.1374 H   0  0  0  0  0  0  0  0  0  0  0  0
    1.9879   -5.2522    6.8985 H   0  0  0  0  0  0  0  0  0  0  0  0
    3.2492   -3.4634    6.7915 H   0  0  0  0  0  0  0  0  0  0  0  0
    4.3222   -4.5032    7.5667 H   0  0  0  0  0  0  0  0  0  0  0  0
    5.0859   -2.9092    5.6276 H   0  0  0  0  0  0  0  0  0  0  0  0
    5.9299   -5.5631    5.8192 H   0  0  0  0  0  0  0  0  0  0  0  0
    6.2223   -4.7751    3.7240 H   0  0  0  0  0  0  0  0  0  0  0  0
    3.9420   -0.9354    2.6880 H   0  0  0  0  0  0  0  0  0  0  0  0
    5.4578   -1.7825    2.7457 H   0  0  0  0  0  0  0  0  0  0  0  0
    4.6145   -1.3837    4.2007 H   0  0  0  0  0  0  0  0  0  0  0  0
    2.6962   -2.1771    4.8089 H   0  0  0  0  0  0  0  0  0  0  0  0
    0.6031   -1.4962    3.9450 H   0  0  0  0  0  0  0  0  0  0  0  0
    0.7971   -2.4221    2.4783 H   0  0  0  0  0  0  0  0  0  0  0  0
    1.7841   -1.0027    2.7750 H   0  0  0  0  0  0  0  0  0  0  0  0
    2.3342   -3.9235    1.7069 H   0  0  0  0  0  0  0  0  0  0  0  0
    2.4592   -2.8008   -0.1331 H   0  0  0  0  0  0  0  0  0  0  0  0
    2.9906   -1.5810    0.9275 H   0  0  0  0  0  0  0  0  0  0  0  0
    5.3269   -0.5167    0.5653 H   0  0  0  0  0  0  0  0  0  0  0  0
    4.1682   -0.2900   -0.7296 H   0  0  0  0  0  0  0  0  0  0  0  0
    5.7989   -0.7479   -1.1098 H   0  0  0  0  0  0  0  0  0  0  0  0
    3.4835   -2.2935   -1.8934 H   0  0  0  0  0  0  0  0  0  0  0  0
  1  2  1  0
  1 47  1  0
  1 48  1  0
  1 49  1  0
  2 44  1  0
  2  3  1  0
  2 50  1  1
  3  4  1  0
  4 42  1  0
  4  5  1  0
  4 51  1  6
  5  6  1  0
  5  7  1  0
  5 52  1  1
  6 53  1  0
  7 18  1  0
  7  8  1  6
  7  9  1  0
  8 54  1  0
  8 55  1  0
  8 56  1  0
  9 34  1  0
  9 10  1  0
  9 57  1  6
 10 30  1  0
 10 40  1  1
 10 11  1  0
 11 12  1  0
 11 58  1  0
 11 59  1  0
 12 13  2  0
 12 14  1  0
 14 15  1  0
 15 26  1  0
 15 16  1  0
 15 60  1  6
 16 17  1  0
 16 61  1  0
 16 62  1  0
 17 18  1  0
 17 63  1  0
 17 64  1  0
 18 25  1  0
 18 19  1  1
 19 20  1  0
 20 21  1  0
 21 22  1  1
 21 23  1  0
 21 29  1  0
 22 65  1  0
 22 66  1  0
 22 67  1  0
 23 24  1  0
 23 68  1  0
 23 69  1  0
 24 25  1  0
 24 70  1  0
 24 71  1  0
 25 26  1  0
 25 72  1  1
 26 27  1  0
 26 28  1  0
 27 73  1  0
 27 74  1  0
 27 75  1  0
 28 76  1  0
 28 77  1  0
 28 78  1  0
 29 30  1  0
 30 31  1  0
 30 79  1  1
 31 32  1  0
 31 80  1  0
 31 81  1  0
 32 33  1  0
 32 34  1  0
 32 82  1  6
 33 83  1  0
 34 35  1  6
 34 36  1  0
 35 84  1  0
 36 37  1  6
 36 38  1  0
 36 42  1  0
 37 85  1  0
 37 86  1  0
 37 87  1  0
 38 39  1  0
 38 40  1  0
 38 88  1  1
 39 89  1  0
 39 90  1  0
 39 91  1  0
 40 41  2  0
 42 43  1  0
 42 92  1  1
 43 44  1  0
 43 93  1  0
 43 94  1  0
 44 45  1  0
 44 46  1  6
 45 95  1  0
 45 96  1  0
 45 97  1  0
 46 98  1  0
M  END
>  <i_m_ct_stereo_status>  (72) 
1

>  <s_m_source_file>  (72) 
/var/tmp/pbs.5083858.sched01/tmplcwk7gb1/30cq16h13y.sdf

>  <i_m_source_file_index>  (72) 
2

>  <i_lp_mmshare_version>  (72) 
48012

>  <i_f3d_flags>  (72) 
0

>  <s_epik_input>  (72) 
W0NIMl0xW0NAXShbQ0gzXSkoW09IXSlbQ0BIXShbQ0gzXSlPW0NAQEhdKFtDQEhdMltPSF0pW0NASF0xW0NAQF0oW0NIM10pKFtDQEBIXShbQ0gzXSlDMz1PKVtDQEBdNChbT0hdKVtDQEhdKFtPSF0pW0NIMl1bQ0BASF01T1tDQEBdKE9PNikoW0NIM10pW0NIMl1bQ0gyXVtDQEBIXShbQ0BAXTY3W0NAXTIoW0NIM10pW0NASF00W0NAXTM1OClDKFtDSDNdKShbQ0gzXSlbQ0BIXShbQ0gyXVtDSDJdNylPQyg9TylbQ0gyXTg=

>  <s_epik_cmdline>  (72) 
J2VwaWtfcHl0aG9uJywgJy1waHQnLCAnMi4wJywgJy1waCcsICc3LjAnLCAnLXRuJywgJzgnLCAnLW1hJywgJzIwMCcsICctaW1hZScsICc8aW5maWxlLm1hZT4nLCAnLW9tYWUnLCAnPG91dGZpbGUubWFlPic=

>  <r_lp_tautomer_probability>  (72) 
1

>  <r_epik_Ionization_Penalty>  (72) 
2.53348e-07

>  <r_epik_Ionization_Penalty_Charging>  (72) 
0

>  <r_epik_Ionization_Penalty_Neutral>  (72) 
2.53348e-07

>  <r_epik_State_Penalty>  (72) 
-0

>  <r_epik_Charging_Adjusted_Penalty>  (72) 
0

>  <i_epik_Tot_Q>  (72) 
0

>  <i_epik_Tot_abs_Q>  (72) 
0

>  <s_epik_Chemistry_Notes>  (72) 
This compound has an ester and may undergo hydrolysis at high or low pH.

>  <s_lp_Force_Field>  (72) 
OPLS3e

>  <r_lp_Energy>  (72) 
280.868

>  <b_lp_Chiralities_Consistent>  (72) 
1

>  <s_lp_Variant>  (72) 
22:0-2

>  <s_i_glide_gridfile>  (72) 
pfpi4k_grid

>  <i_i_glide_lignum>  (72) 
2

>  <i_i_glide_rotatable_bonds>  (72) 
4

>  <r_i_docking_score>  (72) 
-3.56968

>  <r_i_glide_ligand_efficiency>  (72) 
-0.0776018

>  <r_i_glide_ligand_efficiency_sa>  (72) 
-0.278051

>  <r_i_glide_ligand_efficiency_ln>  (72) 
-0.739273

>  <r_i_glide_gscore>  (72) 
-3.56968

>  <r_i_glide_lipo>  (72) 
-0.45258

>  <r_i_glide_hbond>  (72) 
-0.16

>  <r_i_glide_metal>  (72) 
-0

>  <r_i_glide_rewards>  (72) 
-0.505992

>  <r_i_glide_evdw>  (72) 
-35.6111

>  <r_i_glide_ecoul>  (72) 
-4.20066

>  <r_i_glide_erotb>  (72) 
0

>  <r_i_glide_esite>  (72) 
-0.0404572

>  <r_i_glide_emodel>  (72) 
-54.2886

>  <r_i_glide_energy>  (72) 
-39.8118

>  <r_i_glide_einternal>  (72) 
0.135156

>  <r_i_glide_intrahb_reward>  (72) 
-0.5

>  <i_i_glide_confnum>  (72) 
1

>  <i_i_glide_posenum>  (72) 
32

>  <r_i_glide_eff_state_penalty>  (72) 
0

>  <ligand_id>  (72) 
22

>  <original_smiles>  (72) 
CC1OC2C(O)C3(C)C4C56CC(=O)OC7CCC38OOC(C)(CCC8C7(C)C)OC5CC(O)C4(O)C(C)(C(C)C6=O)C2CC1(C)O

>  <smiles>  (72) 
[H]OC1([H])C([H])([H])C2([H])OC3(C([H])([H])[H])OOC45C([H])([H])C([H])([H])C([H])(OC(=O)C([H])([H])C26C(=O)C([H])(C([H])([H])[H])C2(C([H])([H])[H])C7([H])C([H])([H])C(O[H])(C([H])([H])[H])C([H])(C([H])([H])[H])OC7([H])C([H])(O[H])C4(C([H])([H])[H])C6([H])C12O[H])C(C([H])([H])[H])(C([H])([H])[H])C5([H])C([H])([H])C3([H])[H]

$$$$
23:0:0
     RDKit          3D

 48 51  0  0  1  0  0  0  0  0999 V2000
    8.3222   -5.0204    1.5215 C   0  0  0  0  0  0  0  0  0  0  0  0
    8.0797   -4.1428    0.2710 C   0  0  0  0  0  0  0  0  0  0  0  0
    8.9510   -2.8536    0.2688 C   0  0  0  0  0  0  0  0  0  0  0  0
    6.5774   -3.9890   -0.2015 C   0  0  2  0  0  0  0  0  0  0  0  0
    6.5566   -3.3305   -1.6137 C   0  0  0  0  0  0  0  0  0  0  0  0
    5.1557   -3.3583   -2.2188 C   0  0  2  0  0  0  0  0  0  0  0  0
    5.0151   -2.7008   -3.4671 O   0  0  0  0  0  0  0  0  0  0  0  0
    3.8769   -2.0263   -3.5614 C   0  0  0  0  0  0  0  0  0  0  0  0
    3.4754   -1.4102   -4.5489 O   0  0  0  0  0  0  0  0  0  0  0  0
    3.1197   -2.0911   -2.2397 C   0  0  1  0  0  0  0  0  0  0  0  0
    2.0323   -2.9873   -2.3683 O   0  0  0  0  0  0  0  0  0  0  0  0
    4.2770   -2.5068   -1.3124 C   0  0  1  0  0  0  0  0  0  0  0  0
    4.0457   -3.2185    0.0565 C   0  0  1  0  0  0  0  0  0  0  0  0
    3.1053   -2.3297    0.9102 C   0  0  0  0  0  0  0  0  0  0  0  0
    3.3074   -4.5469   -0.1020 C   0  0  0  0  0  0  0  0  0  0  0  0
    3.4613   -5.5540    0.7557 C   0  0  0  0  0  0  0  0  0  0  0  0
    2.6979   -6.6925    0.8627 O   0  0  0  0  0  0  0  0  0  0  0  0
    3.1048   -7.2595    2.0512 C   0  0  0  0  0  0  0  0  0  0  0  0
    2.5544   -8.4069    2.4713 O   0  0  0  0  0  0  0  0  0  0  0  0
    4.0595   -6.5670    2.6707 C   0  0  0  0  0  0  0  0  0  0  0  0
    4.3601   -5.4379    1.8389 C   0  0  0  0  0  0  0  0  0  0  0  0
    5.2397   -4.4223    1.9604 C   0  0  0  0  0  0  0  0  0  0  0  0
    5.4569   -3.4217    0.8105 C   0  0  1  0  0  0  0  0  0  0  0  0
    5.9268   -2.1013    1.4355 C   0  0  0  0  0  0  0  0  0  0  0  0
    7.8132   -4.6611    2.3819 H   0  0  0  0  0  0  0  0  0  0  0  0
    9.3848   -5.0596    1.7975 H   0  0  0  0  0  0  0  0  0  0  0  0
    7.9552   -6.0505    1.3908 H   0  0  0  0  0  0  0  0  0  0  0  0
    8.5448   -4.7481   -0.5178 H   0  0  0  0  0  0  0  0  0  0  0  0
    8.5228   -1.9795    0.7501 H   0  0  0  0  0  0  0  0  0  0  0  0
    9.2141   -2.5659   -0.7542 H   0  0  0  0  0  0  0  0  0  0  0  0
    9.8948   -3.0500    0.7758 H   0  0  0  0  0  0  0  0  0  0  0  0
    6.2209   -5.0087   -0.3913 H   0  0  0  0  0  0  0  0  0  0  0  0
    6.9188   -2.3054   -1.5895 H   0  0  0  0  0  0  0  0  0  0  0  0
    7.2520   -3.7797   -2.3140 H   0  0  0  0  0  0  0  0  0  0  0  0
    4.7740   -4.3694   -2.3215 H   0  0  0  0  0  0  0  0  0  0  0  0
    2.7731   -1.0782   -2.0138 H   0  0  0  0  0  0  0  0  0  0  0  0
    2.3328   -3.8363   -2.6547 H   0  0  0  0  0  0  0  0  0  0  0  0
    4.7867   -1.5705   -1.1025 H   0  0  0  0  0  0  0  0  0  0  0  0
    3.4293   -1.2905    0.9773 H   0  0  0  0  0  0  0  0  0  0  0  0
    3.0364   -2.7322    1.9273 H   0  0  0  0  0  0  0  0  0  0  0  0
    2.0986   -2.3225    0.4994 H   0  0  0  0  0  0  0  0  0  0  0  0
    2.5593   -4.6337   -0.8735 H   0  0  0  0  0  0  0  0  0  0  0  0
    2.9553   -8.6287    3.2730 H   0  0  0  0  0  0  0  0  0  0  0  0
    4.5202   -6.8172    3.6184 H   0  0  0  0  0  0  0  0  0  0  0  0
    5.7962   -4.2991    2.8799 H   0  0  0  0  0  0  0  0  0  0  0  0
    6.2236   -1.3823    0.6739 H   0  0  0  0  0  0  0  0  0  0  0  0
    6.7889   -2.3186    2.0517 H   0  0  0  0  0  0  0  0  0  0  0  0
    5.1951   -1.6323    2.0853 H   0  0  0  0  0  0  0  0  0  0  0  0
  1  2  1  0
  1 25  1  0
  1 26  1  0
  1 27  1  0
  2  3  1  0
  2  4  1  0
  2 28  1  0
  3 29  1  0
  3 30  1  0
  3 31  1  0
  4 23  1  0
  4  5  1  0
  4 32  1  6
  5  6  1  0
  5 33  1  0
  5 34  1  0
  6 12  1  0
  6  7  1  0
  6 35  1  6
  7  8  1  0
  8  9  2  0
  8 10  1  0
 10 11  1  0
 10 12  1  0
 10 36  1  1
 11 37  1  0
 12 13  1  0
 12 38  1  1
 13 23  1  0
 13 14  1  1
 13 15  1  0
 14 39  1  0
 14 40  1  0
 14 41  1  0
 15 16  2  0
 15 42  1  0
 16 21  1  0
 16 17  1  0
 17 18  1  0
 18 19  1  0
 18 20  2  0
 19 43  1  0
 20 21  1  0
 20 44  1  0
 21 22  2  0
 22 23  1  0
 22 45  1  0
 23 24  1  1
 24 46  1  0
 24 47  1  0
 24 48  1  0
M  END
>  <i_m_ct_stereo_status>  (73) 
1

>  <s_m_source_file>  (73) 
/var/tmp/pbs.5083858.sched01/tmplcwk7gb1/30cq16h13y.sdf

>  <i_m_source_file_index>  (73) 
3

>  <i_lp_mmshare_version>  (73) 
48012

>  <i_f3d_flags>  (73) 
0

>  <s_epik_input>  (73) 
W09IXVtDQEBIXTFDKD1PKU9bQ0BIXShbQ0BASF0xW0NAQF0yM1tDSDNdKVtDSDJdW0NAQEhdKFtDSF0oW0NIM10pW0NIM10pW0NAXTMoW0NIM10pW0NIXT1jNGMoPVtDSF0yKW9jKFtPSF0pW2NIXTQ=

>  <s_epik_cmdline>  (73) 
J2VwaWtfcHl0aG9uJywgJy1waHQnLCAnMi4wJywgJy1waCcsICc3LjAnLCAnLXRuJywgJzgnLCAnLW1hJywgJzIwMCcsICctaW1hZScsICc8aW5maWxlLm1hZT4nLCAnLW9tYWUnLCAnPG91dGZpbGUubWFlPic=

>  <r_epik_Ionization_Penalty>  (73) 
0.112276

>  <r_epik_Ionization_Penalty_Charging>  (73) 
0

>  <r_epik_Ionization_Penalty_Neutral>  (73) 
0.112276

>  <r_epik_State_Penalty>  (73) 
0.101909

>  <r_epik_Charging_Adjusted_Penalty>  (73) 
0.101909

>  <i_epik_Tot_Q>  (73) 
0

>  <i_epik_Tot_abs_Q>  (73) 
0

>  <s_epik_Chemistry_Notes>  (73) 
This compound has an ester and may undergo hydrolysis at high or low pH.

>  <s_lp_Force_Field>  (73) 
OPLS3e

>  <r_lp_Energy>  (73) 
40.8676

>  <b_lp_Chiralities_Consistent>  (73) 
1

>  <s_lp_Variant>  (73) 
23:0-1

>  <s_i_glide_gridfile>  (73) 
pfpi4k_grid

>  <i_i_glide_lignum>  (73) 
3

>  <i_i_glide_rotatable_bonds>  (73) 
3

>  <r_i_docking_score>  (73) 
-4.41312

>  <r_i_glide_ligand_efficiency>  (73) 
-0.18388

>  <r_i_glide_ligand_efficiency_sa>  (73) 
-0.530401

>  <r_i_glide_ligand_efficiency_ln>  (73) 
-1.05626

>  <r_i_glide_gscore>  (73) 
-4.41312

>  <r_i_glide_lipo>  (73) 
-0.895696

>  <r_i_glide_hbond>  (73) 
-0.32

>  <r_i_glide_metal>  (73) 
-0

>  <r_i_glide_rewards>  (73) 
-1.43359

>  <r_i_glide_evdw>  (73) 
-24.5756

>  <r_i_glide_ecoul>  (73) 
-3.56699

>  <r_i_glide_erotb>  (73) 
0

>  <r_i_glide_esite>  (73) 
0

>  <r_i_glide_emodel>  (73) 
-32.1668

>  <r_i_glide_energy>  (73) 
-28.1426

>  <r_i_glide_einternal>  (73) 
4.90078

>  <r_i_glide_intrahb_reward>  (73) 
-0

>  <i_i_glide_confnum>  (73) 
2

>  <i_i_glide_posenum>  (73) 
2

>  <r_i_glide_eff_state_penalty>  (73) 
0

>  <ligand_id>  (73) 
23

>  <original_smiles>  (73) 
CC(C)C1CC2OC(=O)C(O)C2C2(C)C=c3oc(O)cc3=CC12C

>  <smiles>  (73) 
[H]Oc1oc2c(c1[H])=C([H])C1(C([H])([H])[H])C([H])(C([H])(C([H])([H])[H])C([H])([H])[H])C([H])([H])C3([H])OC(=O)C([H])(O[H])C3([H])C1(C([H])([H])[H])C=2[H]

$$$$
23:0:1
     RDKit          3D

 48 51  0  0  1  0  0  0  0  0999 V2000
    8.8507   -3.4772   -0.5689 C   0  0  0  0  0  0  0  0  0  0  0  0
    7.9949   -3.8372    0.6629 C   0  0  0  0  0  0  0  0  0  0  0  0
    8.7746   -4.8983    1.4649 C   0  0  0  0  0  0  0  0  0  0  0  0
    6.5063   -4.2299    0.3310 C   0  0  2  0  0  0  0  0  0  0  0  0
    6.0131   -3.4147   -0.8949 C   0  0  0  0  0  0  0  0  0  0  0  0
    4.6482   -3.8781   -1.3447 C   0  0  2  0  0  0  0  0  0  0  0  0
    4.1214   -3.1664   -2.4419 O   0  0  0  0  0  0  0  0  0  0  0  0
    2.7945   -3.0505   -2.3744 C   0  0  0  0  0  0  0  0  0  0  0  0
    2.0637   -2.6828   -3.2857 O   0  0  0  0  0  0  0  0  0  0  0  0
    2.3135   -3.4856   -0.9829 C   0  0  1  0  0  0  0  0  0  0  0  0
    1.4968   -4.6411   -1.1216 O   0  0  0  0  0  0  0  0  0  0  0  0
    3.6611   -3.5902   -0.2423 C   0  0  1  0  0  0  0  0  0  0  0  0
    3.9373   -4.4843    0.9922 C   0  0  1  0  0  0  0  0  0  0  0  0
    2.8730   -4.1668    2.0781 C   0  0  0  0  0  0  0  0  0  0  0  0
    3.7321   -5.9564    0.6532 C   0  0  0  0  0  0  0  0  0  0  0  0
    4.3838   -6.9027    1.3226 C   0  0  0  0  0  0  0  0  0  0  0  0
    4.1446   -8.2457    1.2605 O   0  0  0  0  0  0  0  0  0  0  0  0
    4.8764   -8.7638    2.3029 C   0  0  0  0  0  0  0  0  0  0  0  0
    4.8443  -10.0866    2.5444 O   0  0  0  0  0  0  0  0  0  0  0  0
    5.5815   -7.8468    2.9844 C   0  0  0  0  0  0  0  0  0  0  0  0
    5.3291   -6.5967    2.3436 C   0  0  0  0  0  0  0  0  0  0  0  0
    5.8243   -5.3536    2.5090 C   0  0  0  0  0  0  0  0  0  0  0  0
    5.4415   -4.2233    1.5312 C   0  0  1  0  0  0  0  0  0  0  0  0
    5.4992   -2.8701    2.2859 C   0  0  0  0  0  0  0  0  0  0  0  0
    8.8542   -4.2596   -1.3269 H   0  0  0  0  0  0  0  0  0  0  0  0
    9.8788   -3.2876   -0.2750 H   0  0  0  0  0  0  0  0  0  0  0  0
    8.5276   -2.5489   -1.0403 H   0  0  0  0  0  0  0  0  0  0  0  0
    8.0078   -2.9142    1.2323 H   0  0  0  0  0  0  0  0  0  0  0  0
    8.6972   -5.8958    1.0318 H   0  0  0  0  0  0  0  0  0  0  0  0
    8.4656   -4.9560    2.5000 H   0  0  0  0  0  0  0  0  0  0  0  0
    9.8266   -4.6325    1.5170 H   0  0  0  0  0  0  0  0  0  0  0  0
    6.5541   -5.2612   -0.0201 H   0  0  0  0  0  0  0  0  0  0  0  0
    6.0087   -2.3454   -0.6815 H   0  0  0  0  0  0  0  0  0  0  0  0
    6.6476   -3.5583   -1.7685 H   0  0  0  0  0  0  0  0  0  0  0  0
    4.6691   -4.9420   -1.5901 H   0  0  0  0  0  0  0  0  0  0  0  0
    1.7495   -2.6920   -0.5163 H   0  0  0  0  0  0  0  0  0  0  0  0
    1.9837   -5.2380   -1.6978 H   0  0  0  0  0  0  0  0  0  0  0  0
    3.8250   -2.5632    0.0847 H   0  0  0  0  0  0  0  0  0  0  0  0
    2.7944   -3.1026    2.2995 H   0  0  0  0  0  0  0  0  0  0  0  0
    3.0927   -4.6896    3.0105 H   0  0  0  0  0  0  0  0  0  0  0  0
    1.8846   -4.4987    1.7647 H   0  0  0  0  0  0  0  0  0  0  0  0
    2.9819   -6.2283   -0.0651 H   0  0  0  0  0  0  0  0  0  0  0  0
    4.3100  -10.4932    1.8754 H   0  0  0  0  0  0  0  0  0  0  0  0
    6.2043   -8.0423    3.8425 H   0  0  0  0  0  0  0  0  0  0  0  0
    6.5211   -5.1399    3.3046 H   0  0  0  0  0  0  0  0  0  0  0  0
    5.2548   -2.0239    1.6480 H   0  0  0  0  0  0  0  0  0  0  0  0
    6.4868   -2.6619    2.6589 H   0  0  0  0  0  0  0  0  0  0  0  0
    4.8530   -2.8451    3.1647 H   0  0  0  0  0  0  0  0  0  0  0  0
  1  2  1  0
  1 25  1  0
  1 26  1  0
  1 27  1  0
  2  3  1  0
  2  4  1  0
  2 28  1  0
  3 29  1  0
  3 30  1  0
  3 31  1  0
  4 23  1  0
  4  5  1  0
  4 32  1  6
  5  6  1  0
  5 33  1  0
  5 34  1  0
  6 12  1  0
  6  7  1  0
  6 35  1  6
  7  8  1  0
  8  9  2  0
  8 10  1  0
 10 11  1  0
 10 12  1  0
 10 36  1  1
 11 37  1  0
 12 13  1  0
 12 38  1  1
 13 23  1  0
 13 14  1  1
 13 15  1  0
 14 39  1  0
 14 40  1  0
 14 41  1  0
 15 16  2  0
 15 42  1  0
 16 21  1  0
 16 17  1  0
 17 18  1  0
 18 19  1  0
 18 20  2  0
 19 43  1  0
 20 21  1  0
 20 44  1  0
 21 22  2  0
 22 23  1  0
 22 45  1  0
 23 24  1  1
 24 46  1  0
 24 47  1  0
 24 48  1  0
M  END
>  <i_m_ct_stereo_status>  (74) 
1

>  <s_m_source_file>  (74) 
/var/tmp/pbs.5083858.sched01/tmplcwk7gb1/30cq16h13y.sdf

>  <i_m_source_file_index>  (74) 
3

>  <i_lp_mmshare_version>  (74) 
48012

>  <i_f3d_flags>  (74) 
0

>  <s_epik_input>  (74) 
W09IXVtDQEBIXTFDKD1PKU9bQ0BIXShbQ0BASF0xW0NAQF0yM1tDSDNdKVtDSDJdW0NAQEhdKFtDSF0oW0NIM10pW0NIM10pW0NAXTMoW0NIM10pW0NIXT1jNGMoPVtDSF0yKW9jKFtPSF0pW2NIXTQ=

>  <s_epik_cmdline>  (74) 
J2VwaWtfcHl0aG9uJywgJy1waHQnLCAnMi4wJywgJy1waCcsICc3LjAnLCAnLXRuJywgJzgnLCAnLW1hJywgJzIwMCcsICctaW1hZScsICc8aW5maWxlLm1hZT4nLCAnLW9tYWUnLCAnPG91dGZpbGUubWFlPic=

>  <r_epik_Ionization_Penalty>  (74) 
0.112276

>  <r_epik_Ionization_Penalty_Charging>  (74) 
0

>  <r_epik_Ionization_Penalty_Neutral>  (74) 
0.112276

>  <r_epik_State_Penalty>  (74) 
0.101909

>  <r_epik_Charging_Adjusted_Penalty>  (74) 
0.101909

>  <i_epik_Tot_Q>  (74) 
0

>  <i_epik_Tot_abs_Q>  (74) 
0

>  <s_epik_Chemistry_Notes>  (74) 
This compound has an ester and may undergo hydrolysis at high or low pH.

>  <s_lp_Force_Field>  (74) 
OPLS3e

>  <r_lp_Energy>  (74) 
40.8676

>  <b_lp_Chiralities_Consistent>  (74) 
1

>  <s_lp_Variant>  (74) 
23:0-1

>  <s_i_glide_gridfile>  (74) 
pfpi4k_grid

>  <i_i_glide_lignum>  (74) 
3

>  <i_i_glide_rotatable_bonds>  (74) 
3

>  <r_i_docking_score>  (74) 
-4.01544

>  <r_i_glide_ligand_efficiency>  (74) 
-0.16731

>  <r_i_glide_ligand_efficiency_sa>  (74) 
-0.482606

>  <r_i_glide_ligand_efficiency_ln>  (74) 
-0.961079

>  <r_i_glide_gscore>  (74) 
-4.01544

>  <r_i_glide_lipo>  (74) 
-0.650087

>  <r_i_glide_hbond>  (74) 
0

>  <r_i_glide_metal>  (74) 
-0

>  <r_i_glide_rewards>  (74) 
-1.14279

>  <r_i_glide_evdw>  (74) 
-18.8439

>  <r_i_glide_ecoul>  (74) 
-8.46965

>  <r_i_glide_erotb>  (74) 
0

>  <r_i_glide_esite>  (74) 
-0.00992159

>  <r_i_glide_emodel>  (74) 
-31.0528

>  <r_i_glide_energy>  (74) 
-27.3135

>  <r_i_glide_einternal>  (74) 
5.11924

>  <r_i_glide_intrahb_reward>  (74) 
-0

>  <i_i_glide_confnum>  (74) 
1

>  <i_i_glide_posenum>  (74) 
22

>  <r_i_glide_eff_state_penalty>  (74) 
0

>  <ligand_id>  (74) 
23

>  <original_smiles>  (74) 
CC(C)C1CC2OC(=O)C(O)C2C2(C)C=c3oc(O)cc3=CC12C

>  <smiles>  (74) 
[H]Oc1oc2c(c1[H])=C([H])C1(C([H])([H])[H])C([H])(C([H])(C([H])([H])[H])C([H])([H])[H])C([H])([H])C3([H])OC(=O)C([H])(O[H])C3([H])C1(C([H])([H])[H])C=2[H]

$$$$
23:0:2
     RDKit          3D

 48 51  0  0  1  0  0  0  0  0999 V2000
    2.5503    0.4884    1.7056 C   0  0  0  0  0  0  0  0  0  0  0  0
    2.2827   -0.8590    2.4031 C   0  0  0  0  0  0  0  0  0  0  0  0
    2.5866   -0.7486    3.9199 C   0  0  0  0  0  0  0  0  0  0  0  0
    2.8390   -2.1450    1.6666 C   0  0  2  0  0  0  0  0  0  0  0  0
    2.3980   -3.4166    2.4622 C   0  0  0  0  0  0  0  0  0  0  0  0
    2.7540   -4.7002    1.7170 C   0  0  2  0  0  0  0  0  0  0  0  0
    2.4656   -5.9221    2.3730 O   0  0  0  0  0  0  0  0  0  0  0  0
    3.3898   -6.8552    2.1324 C   0  0  0  0  0  0  0  0  0  0  0  0
    3.3232   -8.0323    2.4687 O   0  0  0  0  0  0  0  0  0  0  0  0
    4.5725   -6.2384    1.3943 C   0  0  1  0  0  0  0  0  0  0  0  0
    4.6093   -6.7436    0.0756 O   0  0  0  0  0  0  0  0  0  0  0  0
    4.2667   -4.7395    1.5770 C   0  0  1  0  0  0  0  0  0  0  0  0
    4.7720   -3.6313    0.6016 C   0  0  1  0  0  0  0  0  0  0  0  0
    6.3159   -3.7640    0.4599 C   0  0  0  0  0  0  0  0  0  0  0  0
    4.2215   -3.8354   -0.8228 C   0  0  0  0  0  0  0  0  0  0  0  0
    4.0459   -2.8101   -1.6581 C   0  0  0  0  0  0  0  0  0  0  0  0
    3.7741   -2.8644   -2.9936 O   0  0  0  0  0  0  0  0  0  0  0  0
    3.9618   -1.5731   -3.4121 C   0  0  0  0  0  0  0  0  0  0  0  0
    3.8105   -1.2900   -4.7110 O   0  0  0  0  0  0  0  0  0  0  0  0
    4.2912   -0.7113   -2.4331 C   0  0  0  0  0  0  0  0  0  0  0  0
    4.3238   -1.4835   -1.2388 C   0  0  0  0  0  0  0  0  0  0  0  0
    4.5664   -1.1496    0.0381 C   0  0  0  0  0  0  0  0  0  0  0  0
    4.3722   -2.1780    1.1757 C   0  0  1  0  0  0  0  0  0  0  0  0
    5.3012   -1.7691    2.3387 C   0  0  0  0  0  0  0  0  0  0  0  0
    3.6137    0.7013    1.6374 H   0  0  0  0  0  0  0  0  0  0  0  0
    2.1175    1.3233    2.2574 H   0  0  0  0  0  0  0  0  0  0  0  0
    2.1101    0.5075    0.7093 H   0  0  0  0  0  0  0  0  0  0  0  0
    1.1988   -0.9723    2.3477 H   0  0  0  0  0  0  0  0  0  0  0  0
    3.6332   -0.9071    4.1844 H   0  0  0  0  0  0  0  0  0  0  0  0
    1.9863   -1.4540    4.4992 H   0  0  0  0  0  0  0  0  0  0  0  0
    2.3253    0.2506    4.2711 H   0  0  0  0  0  0  0  0  0  0  0  0
    2.2488   -2.2186    0.7452 H   0  0  0  0  0  0  0  0  0  0  0  0
    2.8625   -3.4425    3.4470 H   0  0  0  0  0  0  0  0  0  0  0  0
    1.3253   -3.3997    2.6418 H   0  0  0  0  0  0  0  0  0  0  0  0
    2.2774   -4.7187    0.7346 H   0  0  0  0  0  0  0  0  0  0  0  0
    5.4956   -6.5299    1.8983 H   0  0  0  0  0  0  0  0  0  0  0  0
    3.8586   -6.4198   -0.4080 H   0  0  0  0  0  0  0  0  0  0  0  0
    4.7113   -4.5244    2.5538 H   0  0  0  0  0  0  0  0  0  0  0  0
    6.8309   -3.7977    1.4229 H   0  0  0  0  0  0  0  0  0  0  0  0
    6.7228   -2.9229   -0.1084 H   0  0  0  0  0  0  0  0  0  0  0  0
    6.5901   -4.6731   -0.0807 H   0  0  0  0  0  0  0  0  0  0  0  0
    4.0866   -4.8350   -1.1844 H   0  0  0  0  0  0  0  0  0  0  0  0
    3.8876   -0.3490   -4.7960 H   0  0  0  0  0  0  0  0  0  0  0  0
    4.4805    0.3319   -2.5712 H   0  0  0  0  0  0  0  0  0  0  0  0
    4.8817   -0.1403    0.2701 H   0  0  0  0  0  0  0  0  0  0  0  0
    5.1669   -2.4191    3.1987 H   0  0  0  0  0  0  0  0  0  0  0  0
    5.0849   -0.7527    2.6531 H   0  0  0  0  0  0  0  0  0  0  0  0
    6.3555   -1.7744    2.0689 H   0  0  0  0  0  0  0  0  0  0  0  0
  1  2  1  0
  1 25  1  0
  1 26  1  0
  1 27  1  0
  2  3  1  0
  2  4  1  0
  2 28  1  0
  3 29  1  0
  3 30  1  0
  3 31  1  0
  4 23  1  0
  4  5  1  0
  4 32  1  6
  5  6  1  0
  5 33  1  0
  5 34  1  0
  6 12  1  0
  6  7  1  0
  6 35  1  6
  7  8  1  0
  8  9  2  0
  8 10  1  0
 10 11  1  0
 10 12  1  0
 10 36  1  1
 11 37  1  0
 12 13  1  0
 12 38  1  1
 13 23  1  0
 13 14  1  6
 13 15  1  0
 14 39  1  0
 14 40  1  0
 14 41  1  0
 15 16  2  0
 15 42  1  0
 16 21  1  0
 16 17  1  0
 17 18  1  0
 18 19  1  0
 18 20  2  0
 19 43  1  0
 20 21  1  0
 20 44  1  0
 21 22  2  0
 22 23  1  0
 22 45  1  0
 23 24  1  1
 24 46  1  0
 24 47  1  0
 24 48  1  0
M  END
>  <i_m_ct_stereo_status>  (75) 
1

>  <s_m_source_file>  (75) 
/var/tmp/pbs.5083858.sched01/tmplcwk7gb1/30cq16h13y.sdf

>  <i_m_source_file_index>  (75) 
3

>  <i_lp_mmshare_version>  (75) 
48012

>  <i_f3d_flags>  (75) 
0

>  <s_epik_input>  (75) 
W09IXVtDQEBIXTFDKD1PKU9bQ0BIXShbQ0BASF0xW0NAQF0yM1tDSDNdKVtDSDJdW0NAQEhdKFtDSF0oW0NIM10pW0NIM10pW0NAXTMoW0NIM10pW0NIXT1jNGMoPVtDSF0yKW9jKFtPSF0pW2NIXTQ=

>  <s_epik_cmdline>  (75) 
J2VwaWtfcHl0aG9uJywgJy1waHQnLCAnMi4wJywgJy1waCcsICc3LjAnLCAnLXRuJywgJzgnLCAnLW1hJywgJzIwMCcsICctaW1hZScsICc8aW5maWxlLm1hZT4nLCAnLW9tYWUnLCAnPG91dGZpbGUubWFlPic=

>  <r_epik_Ionization_Penalty>  (75) 
0.112276

>  <r_epik_Ionization_Penalty_Charging>  (75) 
0

>  <r_epik_Ionization_Penalty_Neutral>  (75) 
0.112276

>  <r_epik_State_Penalty>  (75) 
0.101909

>  <r_epik_Charging_Adjusted_Penalty>  (75) 
0.101909

>  <i_epik_Tot_Q>  (75) 
0

>  <i_epik_Tot_abs_Q>  (75) 
0

>  <s_epik_Chemistry_Notes>  (75) 
This compound has an ester and may undergo hydrolysis at high or low pH.

>  <s_lp_Force_Field>  (75) 
OPLS3e

>  <r_lp_Energy>  (75) 
40.8676

>  <b_lp_Chiralities_Consistent>  (75) 
1

>  <s_lp_Variant>  (75) 
23:0-1

>  <s_i_glide_gridfile>  (75) 
pfpi4k_grid

>  <i_i_glide_lignum>  (75) 
3

>  <i_i_glide_rotatable_bonds>  (75) 
3

>  <r_i_docking_score>  (75) 
-3.45899

>  <r_i_glide_ligand_efficiency>  (75) 
-0.144125

>  <r_i_glide_ligand_efficiency_sa>  (75) 
-0.415727

>  <r_i_glide_ligand_efficiency_ln>  (75) 
-0.827895

>  <r_i_glide_gscore>  (75) 
-3.45899

>  <r_i_glide_lipo>  (75) 
-0.483911

>  <r_i_glide_hbond>  (75) 
0

>  <r_i_glide_metal>  (75) 
-0

>  <r_i_glide_rewards>  (75) 
-1.16541

>  <r_i_glide_evdw>  (75) 
-24.9859

>  <r_i_glide_ecoul>  (75) 
-3.73586

>  <r_i_glide_erotb>  (75) 
0

>  <r_i_glide_esite>  (75) 
0

>  <r_i_glide_emodel>  (75) 
-31.4665

>  <r_i_glide_energy>  (75) 
-28.7217

>  <r_i_glide_einternal>  (75) 
4.7705

>  <r_i_glide_intrahb_reward>  (75) 
-0

>  <i_i_glide_confnum>  (75) 
1

>  <i_i_glide_posenum>  (75) 
35

>  <r_i_glide_eff_state_penalty>  (75) 
0

>  <ligand_id>  (75) 
23

>  <original_smiles>  (75) 
CC(C)C1CC2OC(=O)C(O)C2C2(C)C=c3oc(O)cc3=CC12C

>  <smiles>  (75) 
[H]Oc1oc2c(c1[H])=C([H])C1(C([H])([H])[H])C([H])(C([H])(C([H])([H])[H])C([H])([H])[H])C([H])([H])C3([H])OC(=O)C([H])(O[H])C3([H])C1(C([H])([H])[H])C=2[H]

$$$$
23:1:0
     RDKit          3D

 47 50  0  0  1  0  0  0  0  0999 V2000
    7.2287   -7.2421    1.6813 C   0  0  0  0  0  0  0  0  0  0  0  0
    6.3711   -6.1798    2.4131 C   0  0  0  0  0  0  0  0  0  0  0  0
    5.8163   -6.8466    3.6881 C   0  0  0  0  0  0  0  0  0  0  0  0
    5.2938   -5.4925    1.4827 C   0  0  2  0  0  0  0  0  0  0  0  0
    6.0016   -4.9317    0.2171 C   0  0  0  0  0  0  0  0  0  0  0  0
    4.9912   -4.3941   -0.7843 C   0  0  2  0  0  0  0  0  0  0  0  0
    5.5340   -3.8365   -1.9634 O   0  0  0  0  0  0  0  0  0  0  0  0
    4.8184   -2.8084   -2.4145 C   0  0  0  0  0  0  0  0  0  0  0  0
    4.9588   -2.2473   -3.4954 O   0  0  0  0  0  0  0  0  0  0  0  0
    3.7826   -2.3981   -1.3773 C   0  0  1  0  0  0  0  0  0  0  0  0
    2.5005   -2.6609   -1.9046 O   0  0  0  0  0  0  0  0  0  0  0  0
    4.2738   -3.2211   -0.1631 C   0  0  1  0  0  0  0  0  0  0  0  0
    3.3811   -3.7052    1.0113 C   0  0  1  0  0  0  0  0  0  0  0  0
    2.6292   -2.4716    1.5883 C   0  0  0  0  0  0  0  0  0  0  0  0
    2.2925   -4.6675    0.5215 C   0  0  0  0  0  0  0  0  0  0  0  0
    1.7616   -5.5676    1.3548 C   0  0  0  0  0  0  0  0  0  0  0  0
    0.6039   -6.2587    1.1632 O   0  0  0  0  0  0  0  0  0  0  0  0
    0.2969   -6.8662    2.3677 C   0  0  0  0  0  0  0  0  0  0  0  0
   -0.7539   -7.5430    2.3977 O   0  0  0  0  0  0  0  0  0  0  0  0
    1.2436   -6.5497    3.3344 C   0  0  0  0  0  0  0  0  0  0  0  0
    2.2124   -5.7309    2.6762 C   0  0  0  0  0  0  0  0  0  0  0  0
    3.3592   -5.1789    3.1064 C   0  0  0  0  0  0  0  0  0  0  0  0
    4.2913   -4.4268    2.1372 C   0  0  1  0  0  0  0  0  0  0  0  0
    5.1020   -3.3921    2.9597 C   0  0  0  0  0  0  0  0  0  0  0  0
    6.6095   -7.9845    1.1779 H   0  0  0  0  0  0  0  0  0  0  0  0
    7.8774   -7.7797    2.3739 H   0  0  0  0  0  0  0  0  0  0  0  0
    7.9054   -6.8040    0.9491 H   0  0  0  0  0  0  0  0  0  0  0  0
    7.0732   -5.4139    2.7413 H   0  0  0  0  0  0  0  0  0  0  0  0
    4.9435   -7.4660    3.4737 H   0  0  0  0  0  0  0  0  0  0  0  0
    5.5523   -6.1087    4.4425 H   0  0  0  0  0  0  0  0  0  0  0  0
    6.5568   -7.4866    4.1667 H   0  0  0  0  0  0  0  0  0  0  0  0
    4.6648   -6.3049    1.1129 H   0  0  0  0  0  0  0  0  0  0  0  0
    6.7299   -4.1640    0.4848 H   0  0  0  0  0  0  0  0  0  0  0  0
    6.5476   -5.7101   -0.2981 H   0  0  0  0  0  0  0  0  0  0  0  0
    4.2912   -5.1789   -1.0750 H   0  0  0  0  0  0  0  0  0  0  0  0
    3.8531   -1.3275   -1.1799 H   0  0  0  0  0  0  0  0  0  0  0  0
    1.8695   -2.0841   -1.4725 H   0  0  0  0  0  0  0  0  0  0  0  0
    5.0272   -2.5666    0.2779 H   0  0  0  0  0  0  0  0  0  0  0  0
    3.2964   -1.6443    1.8367 H   0  0  0  0  0  0  0  0  0  0  0  0
    2.0746   -2.7274    2.4919 H   0  0  0  0  0  0  0  0  0  0  0  0
    1.8968   -2.0773    0.8819 H   0  0  0  0  0  0  0  0  0  0  0  0
    1.8528   -4.5182   -0.4475 H   0  0  0  0  0  0  0  0  0  0  0  0
    1.2492   -6.8674    4.3686 H   0  0  0  0  0  0  0  0  0  0  0  0
    3.6473   -5.2840    4.1389 H   0  0  0  0  0  0  0  0  0  0  0  0
    5.8006   -2.8223    2.3468 H   0  0  0  0  0  0  0  0  0  0  0  0
    5.6882   -3.8755    3.7386 H   0  0  0  0  0  0  0  0  0  0  0  0
    4.4591   -2.6850    3.4821 H   0  0  0  0  0  0  0  0  0  0  0  0
  1  2  1  0
  1 25  1  0
  1 26  1  0
  1 27  1  0
  2  3  1  0
  2  4  1  0
  2 28  1  0
  3 29  1  0
  3 30  1  0
  3 31  1  0
  4 23  1  0
  4  5  1  0
  4 32  1  6
  5  6  1  0
  5 33  1  0
  5 34  1  0
  6 12  1  0
  6  7  1  0
  6 35  1  6
  7  8  1  0
  8  9  2  0
  8 10  1  0
 10 11  1  0
 10 12  1  0
 10 36  1  1
 11 37  1  0
 12 13  1  0
 12 38  1  1
 13 23  1  0
 13 14  1  1
 13 15  1  0
 14 39  1  0
 14 40  1  0
 14 41  1  0
 15 16  2  0
 15 42  1  0
 16 21  1  0
 16 17  1  0
 17 18  1  0
 18 19  1  0
 18 20  2  0
 20 21  1  0
 20 43  1  0
 21 22  2  0
 22 23  1  0
 22 44  1  0
 23 24  1  1
 24 45  1  0
 24 46  1  0
 24 47  1  0
M  CHG  1  19  -1
M  END
>  <i_m_ct_stereo_status>  (76) 
1

>  <s_m_source_file>  (76) 
/var/tmp/pbs.5083858.sched01/tmplcwk7gb1/30cq16h13y.sdf

>  <i_m_source_file_index>  (76) 
4

>  <i_lp_mmshare_version>  (76) 
48012

>  <i_f3d_flags>  (76) 
0

>  <s_epik_input>  (76) 
W09IXVtDQEBIXTFDKD1PKU9bQ0BIXShbQ0BASF0xW0NAQF0yM1tDSDNdKVtDSDJdW0NAQEhdKFtDSF0oW0NIM10pW0NIM10pW0NAXTMoW0NIM10pW0NIXT1jNGMoPVtDSF0yKW9jKFtPSF0pW2NIXTQ=

>  <s_epik_cmdline>  (76) 
J2VwaWtfcHl0aG9uJywgJy1waHQnLCAnMi4wJywgJy1waCcsICc3LjAnLCAnLXRuJywgJzgnLCAnLW1hJywgJzIwMCcsICctaW1hZScsICc8aW5maWxlLm1hZT4nLCAnLW9tYWUnLCAnPG91dGZpbGUubWFlPic=

>  <r_epik_Ionization_Penalty>  (76) 
1.0412

>  <r_epik_Ionization_Penalty_Charging>  (76) 
1.04113

>  <r_epik_Ionization_Penalty_Neutral>  (76) 
7.35437e-05

>  <r_epik_State_Penalty>  (76) 
1.09315

>  <r_epik_Charging_Adjusted_Penalty>  (76) 
2.13427

>  <i_epik_Tot_Q>  (76) 
-1

>  <i_epik_Tot_abs_Q>  (76) 
1

>  <s_epik_Chemistry_Notes>  (76) 
This compound has an ester and may undergo hydrolysis at high or low pH.

>  <s_lp_Force_Field>  (76) 
OPLS3e

>  <r_lp_Energy>  (76) 
42.4448

>  <b_lp_Chiralities_Consistent>  (76) 
1

>  <s_lp_Variant>  (76) 
23:0-2

>  <s_i_glide_gridfile>  (76) 
pfpi4k_grid

>  <i_i_glide_lignum>  (76) 
4

>  <i_i_glide_rotatable_bonds>  (76) 
2

>  <r_i_docking_score>  (76) 
-3.64428

>  <r_i_glide_ligand_efficiency>  (76) 
-0.151845

>  <r_i_glide_ligand_efficiency_sa>  (76) 
-0.437997

>  <r_i_glide_ligand_efficiency_ln>  (76) 
-0.872244

>  <r_i_glide_gscore>  (76) 
-3.64428

>  <r_i_glide_lipo>  (76) 
-0.306581

>  <r_i_glide_hbond>  (76) 
-0.16

>  <r_i_glide_metal>  (76) 
-0

>  <r_i_glide_rewards>  (76) 
-1.29376

>  <r_i_glide_evdw>  (76) 
-17.1988

>  <r_i_glide_ecoul>  (76) 
-6.82668

>  <r_i_glide_erotb>  (76) 
0

>  <r_i_glide_esite>  (76) 
0

>  <r_i_glide_emodel>  (76) 
-30.4315

>  <r_i_glide_energy>  (76) 
-24.0255

>  <r_i_glide_einternal>  (76) 
1.015

>  <r_i_glide_intrahb_reward>  (76) 
-0

>  <i_i_glide_confnum>  (76) 
2

>  <i_i_glide_posenum>  (76) 
33

>  <r_i_glide_eff_state_penalty>  (76) 
0

>  <ligand_id>  (76) 
23

>  <original_smiles>  (76) 
CC(C)C1CC2OC(=O)C(O)C2C2(C)C=c3oc(O)cc3=CC12C

>  <smiles>  (76) 
[H]OC1([H])C(=O)OC2([H])C([H])([H])C([H])(C([H])(C([H])([H])[H])C([H])([H])[H])C3(C([H])([H])[H])C([H])=c4c([H])c([O-])oc4=C([H])C3(C([H])([H])[H])C12[H]

$$$$
23:1:1
     RDKit          3D

 47 50  0  0  1  0  0  0  0  0999 V2000
    6.5214   -5.5843    3.1895 C   0  0  0  0  0  0  0  0  0  0  0  0
    6.7215   -5.1787    1.6884 C   0  0  0  0  0  0  0  0  0  0  0  0
    7.9422   -4.2631    1.5078 C   0  0  0  0  0  0  0  0  0  0  0  0
    5.4616   -4.6991    0.8588 C   0  0  2  0  0  0  0  0  0  0  0  0
    5.8845   -3.9709   -0.4521 C   0  0  0  0  0  0  0  0  0  0  0  0
    4.7494   -3.7466   -1.4351 C   0  0  2  0  0  0  0  0  0  0  0  0
    5.0673   -3.0529   -2.6328 O   0  0  0  0  0  0  0  0  0  0  0  0
    4.0999   -2.2276   -3.0087 C   0  0  0  0  0  0  0  0  0  0  0  0
    4.0222   -1.6178   -4.0757 O   0  0  0  0  0  0  0  0  0  0  0  0
    3.0290   -2.1724   -1.9276 C   0  0  1  0  0  0  0  0  0  0  0  0
    1.8950   -2.8830   -2.4154 O   0  0  0  0  0  0  0  0  0  0  0  0
    3.8170   -2.8007   -0.7384 C   0  0  1  0  0  0  0  0  0  0  0  0
    3.1781   -3.5086    0.5073 C   0  0  1  0  0  0  0  0  0  0  0  0
    2.2554   -2.4971    1.1995 C   0  0  0  0  0  0  0  0  0  0  0  0
    2.2803   -4.6875    0.0773 C   0  0  0  0  0  0  0  0  0  0  0  0
    2.0023   -5.6818    0.9168 C   0  0  0  0  0  0  0  0  0  0  0  0
    1.0195   -6.6319    0.8050 O   0  0  0  0  0  0  0  0  0  0  0  0
    0.9904   -7.2862    2.0244 C   0  0  0  0  0  0  0  0  0  0  0  0
    0.1473   -8.2135    2.1349 O   0  0  0  0  0  0  0  0  0  0  0  0
    1.9237   -6.7544    2.8998 C   0  0  0  0  0  0  0  0  0  0  0  0
    2.6086   -5.7265    2.1865 C   0  0  0  0  0  0  0  0  0  0  0  0
    3.6132   -4.9091    2.5644 C   0  0  0  0  0  0  0  0  0  0  0  0
    4.2874   -3.9241    1.5739 C   0  0  1  0  0  0  0  0  0  0  0  0
    4.8694   -2.6511    2.2955 C   0  0  0  0  0  0  0  0  0  0  0  0
    6.1197   -4.7944    3.8111 H   0  0  0  0  0  0  0  0  0  0  0  0
    7.4921   -5.8504    3.6387 H   0  0  0  0  0  0  0  0  0  0  0  0
    5.8889   -6.4928    3.2309 H   0  0  0  0  0  0  0  0  0  0  0  0
    7.0409   -6.0740    1.1795 H   0  0  0  0  0  0  0  0  0  0  0  0
    7.6484   -3.2267    1.6529 H   0  0  0  0  0  0  0  0  0  0  0  0
    8.3922   -4.3284    0.5118 H   0  0  0  0  0  0  0  0  0  0  0  0
    8.7329   -4.5283    2.2073 H   0  0  0  0  0  0  0  0  0  0  0  0
    5.0146   -5.6301    0.4982 H   0  0  0  0  0  0  0  0  0  0  0  0
    6.3821   -3.0162   -0.2982 H   0  0  0  0  0  0  0  0  0  0  0  0
    6.5967   -4.6112   -0.9112 H   0  0  0  0  0  0  0  0  0  0  0  0
    4.2200   -4.6652   -1.6850 H   0  0  0  0  0  0  0  0  0  0  0  0
    2.8192   -1.1232   -1.7235 H   0  0  0  0  0  0  0  0  0  0  0  0
    2.1124   -3.7790   -2.5800 H   0  0  0  0  0  0  0  0  0  0  0  0
    4.3907   -1.9555   -0.3563 H   0  0  0  0  0  0  0  0  0  0  0  0
    2.6659   -1.4939    1.3510 H   0  0  0  0  0  0  0  0  0  0  0  0
    1.8336   -2.8754    2.1437 H   0  0  0  0  0  0  0  0  0  0  0  0
    1.4702   -2.3017    0.4847 H   0  0  0  0  0  0  0  0  0  0  0  0
    1.7540   -4.6373   -0.8563 H   0  0  0  0  0  0  0  0  0  0  0  0
    2.1238   -7.0515    3.9262 H   0  0  0  0  0  0  0  0  0  0  0  0
    3.9643   -4.9519    3.5776 H   0  0  0  0  0  0  0  0  0  0  0  0
    5.2423   -1.9267    1.5462 H   0  0  0  0  0  0  0  0  0  0  0  0
    5.6662   -2.8500    2.9889 H   0  0  0  0  0  0  0  0  0  0  0  0
    4.0701   -2.1421    2.8546 H   0  0  0  0  0  0  0  0  0  0  0  0
  1  2  1  0
  1 25  1  0
  1 26  1  0
  1 27  1  0
  2  3  1  0
  2  4  1  0
  2 28  1  0
  3 29  1  0
  3 30  1  0
  3 31  1  0
  4 23  1  0
  4  5  1  0
  4 32  1  6
  5  6  1  0
  5 33  1  0
  5 34  1  0
  6 12  1  0
  6  7  1  0
  6 35  1  6
  7  8  1  0
  8  9  2  0
  8 10  1  0
 10 11  1  0
 10 12  1  0
 10 36  1  1
 11 37  1  0
 12 13  1  0
 12 38  1  1
 13 23  1  0
 13 14  1  1
 13 15  1  0
 14 39  1  0
 14 40  1  0
 14 41  1  0
 15 16  2  0
 15 42  1  0
 16 21  1  0
 16 17  1  0
 17 18  1  0
 18 19  1  0
 18 20  2  0
 20 21  1  0
 20 43  1  0
 21 22  2  0
 22 23  1  0
 22 44  1  0
 23 24  1  1
 24 45  1  0
 24 46  1  0
 24 47  1  0
M  CHG  1  19  -1
M  END
>  <i_m_ct_stereo_status>  (77) 
1

>  <s_m_source_file>  (77) 
/var/tmp/pbs.5083858.sched01/tmplcwk7gb1/30cq16h13y.sdf

>  <i_m_source_file_index>  (77) 
4

>  <i_lp_mmshare_version>  (77) 
48012

>  <i_f3d_flags>  (77) 
0

>  <s_epik_input>  (77) 
W09IXVtDQEBIXTFDKD1PKU9bQ0BIXShbQ0BASF0xW0NAQF0yM1tDSDNdKVtDSDJdW0NAQEhdKFtDSF0oW0NIM10pW0NIM10pW0NAXTMoW0NIM10pW0NIXT1jNGMoPVtDSF0yKW9jKFtPSF0pW2NIXTQ=

>  <s_epik_cmdline>  (77) 
J2VwaWtfcHl0aG9uJywgJy1waHQnLCAnMi4wJywgJy1waCcsICc3LjAnLCAnLXRuJywgJzgnLCAnLW1hJywgJzIwMCcsICctaW1hZScsICc8aW5maWxlLm1hZT4nLCAnLW9tYWUnLCAnPG91dGZpbGUubWFlPic=

>  <r_epik_Ionization_Penalty>  (77) 
1.0412

>  <r_epik_Ionization_Penalty_Charging>  (77) 
1.04113

>  <r_epik_Ionization_Penalty_Neutral>  (77) 
7.35437e-05

>  <r_epik_State_Penalty>  (77) 
1.09315

>  <r_epik_Charging_Adjusted_Penalty>  (77) 
2.13427

>  <i_epik_Tot_Q>  (77) 
-1

>  <i_epik_Tot_abs_Q>  (77) 
1

>  <s_epik_Chemistry_Notes>  (77) 
This compound has an ester and may undergo hydrolysis at high or low pH.

>  <s_lp_Force_Field>  (77) 
OPLS3e

>  <r_lp_Energy>  (77) 
42.4448

>  <b_lp_Chiralities_Consistent>  (77) 
1

>  <s_lp_Variant>  (77) 
23:0-2

>  <s_i_glide_gridfile>  (77) 
pfpi4k_grid

>  <i_i_glide_lignum>  (77) 
4

>  <i_i_glide_rotatable_bonds>  (77) 
2

>  <r_i_docking_score>  (77) 
-3.54569

>  <r_i_glide_ligand_efficiency>  (77) 
-0.147737

>  <r_i_glide_ligand_efficiency_sa>  (77) 
-0.426147

>  <r_i_glide_ligand_efficiency_ln>  (77) 
-0.848646

>  <r_i_glide_gscore>  (77) 
-3.54569

>  <r_i_glide_lipo>  (77) 
-0.361197

>  <r_i_glide_hbond>  (77) 
-0.235977

>  <r_i_glide_metal>  (77) 
-0

>  <r_i_glide_rewards>  (77) 
-1.33094

>  <r_i_glide_evdw>  (77) 
-16.2297

>  <r_i_glide_ecoul>  (77) 
-5.37396

>  <r_i_glide_erotb>  (77) 
0

>  <r_i_glide_esite>  (77) 
0

>  <r_i_glide_emodel>  (77) 
-24.2011

>  <r_i_glide_energy>  (77) 
-21.6036

>  <r_i_glide_einternal>  (77) 
6.38784

>  <r_i_glide_intrahb_reward>  (77) 
-0

>  <i_i_glide_confnum>  (77) 
2

>  <i_i_glide_posenum>  (77) 
12

>  <r_i_glide_eff_state_penalty>  (77) 
0

>  <ligand_id>  (77) 
23

>  <original_smiles>  (77) 
CC(C)C1CC2OC(=O)C(O)C2C2(C)C=c3oc(O)cc3=CC12C

>  <smiles>  (77) 
[H]OC1([H])C(=O)OC2([H])C([H])([H])C([H])(C([H])(C([H])([H])[H])C([H])([H])[H])C3(C([H])([H])[H])C([H])=c4c([H])c([O-])oc4=C([H])C3(C([H])([H])[H])C12[H]

$$$$
23:1:2
     RDKit          3D

 47 50  0  0  1  0  0  0  0  0999 V2000
    4.6705    0.0103    4.1133 C   0  0  0  0  0  0  0  0  0  0  0  0
    3.9596    0.0852    2.7288 C   0  0  0  0  0  0  0  0  0  0  0  0
    2.8112    1.1245    2.8519 C   0  0  0  0  0  0  0  0  0  0  0  0
    3.4873   -1.2983    2.1216 C   0  0  2  0  0  0  0  0  0  0  0  0
    2.6081   -2.0615    3.1506 C   0  0  0  0  0  0  0  0  0  0  0  0
    2.0293   -3.3245    2.5471 C   0  0  2  0  0  0  0  0  0  0  0  0
    1.2748   -4.1251    3.4369 O   0  0  0  0  0  0  0  0  0  0  0  0
    1.4162   -5.4311    3.1934 C   0  0  0  0  0  0  0  0  0  0  0  0
    0.7509   -6.3284    3.6941 O   0  0  0  0  0  0  0  0  0  0  0  0
    2.5277   -5.6474    2.1695 C   0  0  1  0  0  0  0  0  0  0  0  0
    1.9517   -6.0805    0.9513 O   0  0  0  0  0  0  0  0  0  0  0  0
    3.1678   -4.2450    2.1631 C   0  0  1  0  0  0  0  0  0  0  0  0
    3.9807   -3.6593    0.9719 C   0  0  1  0  0  0  0  0  0  0  0  0
    5.1078   -4.6660    0.6043 C   0  0  0  0  0  0  0  0  0  0  0  0
    3.1371   -3.5350   -0.3039 C   0  0  0  0  0  0  0  0  0  0  0  0
    3.4495   -2.6208   -1.2342 C   0  0  0  0  0  0  0  0  0  0  0  0
    2.9502   -2.5346   -2.4909 O   0  0  0  0  0  0  0  0  0  0  0  0
    3.7170   -1.5987   -3.1387 C   0  0  0  0  0  0  0  0  0  0  0  0
    3.4381   -1.3886   -4.3343 O   0  0  0  0  0  0  0  0  0  0  0  0
    4.6827   -1.0556   -2.3092 C   0  0  0  0  0  0  0  0  0  0  0  0
    4.4866   -1.6833   -1.0412 C   0  0  0  0  0  0  0  0  0  0  0  0
    5.0722   -1.4792    0.1487 C   0  0  0  0  0  0  0  0  0  0  0  0
    4.5873   -2.2226    1.4052 C   0  0  1  0  0  0  0  0  0  0  0  0
    5.8212   -2.3962    2.3163 C   0  0  0  0  0  0  0  0  0  0  0  0
    4.0565   -0.5104    4.8535 H   0  0  0  0  0  0  0  0  0  0  0  0
    4.8171    1.0189    4.5133 H   0  0  0  0  0  0  0  0  0  0  0  0
    5.6496   -0.4585    4.0906 H   0  0  0  0  0  0  0  0  0  0  0  0
    4.6477    0.5276    2.0116 H   0  0  0  0  0  0  0  0  0  0  0  0
    1.9292    0.7352    3.3587 H   0  0  0  0  0  0  0  0  0  0  0  0
    2.4919    1.5264    1.8878 H   0  0  0  0  0  0  0  0  0  0  0  0
    3.1347    1.9793    3.4449 H   0  0  0  0  0  0  0  0  0  0  0  0
    2.7934   -1.0318    1.3160 H   0  0  0  0  0  0  0  0  0  0  0  0
    3.1857   -2.3417    4.0283 H   0  0  0  0  0  0  0  0  0  0  0  0
    1.7831   -1.4388    3.4968 H   0  0  0  0  0  0  0  0  0  0  0  0
    1.4175   -3.0697    1.6813 H   0  0  0  0  0  0  0  0  0  0  0  0
    3.2207   -6.4030    2.5422 H   0  0  0  0  0  0  0  0  0  0  0  0
    2.6555   -6.2483    0.3404 H   0  0  0  0  0  0  0  0  0  0  0  0
    3.8602   -4.2949    3.0066 H   0  0  0  0  0  0  0  0  0  0  0  0
    5.7080   -4.9697    1.4641 H   0  0  0  0  0  0  0  0  0  0  0  0
    5.7846   -4.2401   -0.1374 H   0  0  0  0  0  0  0  0  0  0  0  0
    4.7048   -5.5802    0.1664 H   0  0  0  0  0  0  0  0  0  0  0  0
    2.3658   -4.2443   -0.5197 H   0  0  0  0  0  0  0  0  0  0  0  0
    5.4127   -0.3145   -2.5691 H   0  0  0  0  0  0  0  0  0  0  0  0
    5.8738   -0.7636    0.2537 H   0  0  0  0  0  0  0  0  0  0  0  0
    5.5528   -2.8133    3.2884 H   0  0  0  0  0  0  0  0  0  0  0  0
    6.3088   -1.4405    2.4739 H   0  0  0  0  0  0  0  0  0  0  0  0
    6.5928   -3.0396    1.8802 H   0  0  0  0  0  0  0  0  0  0  0  0
  1  2  1  0
  1 25  1  0
  1 26  1  0
  1 27  1  0
  2  3  1  0
  2  4  1  0
  2 28  1  0
  3 29  1  0
  3 30  1  0
  3 31  1  0
  4 23  1  0
  4  5  1  0
  4 32  1  6
  5  6  1  0
  5 33  1  0
  5 34  1  0
  6 12  1  0
  6  7  1  0
  6 35  1  6
  7  8  1  0
  8  9  2  0
  8 10  1  0
 10 11  1  0
 10 12  1  0
 10 36  1  1
 11 37  1  0
 12 13  1  0
 12 38  1  1
 13 23  1  0
 13 14  1  6
 13 15  1  0
 14 39  1  0
 14 40  1  0
 14 41  1  0
 15 16  2  0
 15 42  1  0
 16 21  1  0
 16 17  1  0
 17 18  1  0
 18 19  1  0
 18 20  2  0
 20 21  1  0
 20 43  1  0
 21 22  2  0
 22 23  1  0
 22 44  1  0
 23 24  1  1
 24 45  1  0
 24 46  1  0
 24 47  1  0
M  CHG  1  19  -1
M  END
>  <i_m_ct_stereo_status>  (78) 
1

>  <s_m_source_file>  (78) 
/var/tmp/pbs.5083858.sched01/tmplcwk7gb1/30cq16h13y.sdf

>  <i_m_source_file_index>  (78) 
4

>  <i_lp_mmshare_version>  (78) 
48012

>  <i_f3d_flags>  (78) 
0

>  <s_epik_input>  (78) 
W09IXVtDQEBIXTFDKD1PKU9bQ0BIXShbQ0BASF0xW0NAQF0yM1tDSDNdKVtDSDJdW0NAQEhdKFtDSF0oW0NIM10pW0NIM10pW0NAXTMoW0NIM10pW0NIXT1jNGMoPVtDSF0yKW9jKFtPSF0pW2NIXTQ=

>  <s_epik_cmdline>  (78) 
J2VwaWtfcHl0aG9uJywgJy1waHQnLCAnMi4wJywgJy1waCcsICc3LjAnLCAnLXRuJywgJzgnLCAnLW1hJywgJzIwMCcsICctaW1hZScsICc8aW5maWxlLm1hZT4nLCAnLW9tYWUnLCAnPG91dGZpbGUubWFlPic=

>  <r_epik_Ionization_Penalty>  (78) 
1.0412

>  <r_epik_Ionization_Penalty_Charging>  (78) 
1.04113

>  <r_epik_Ionization_Penalty_Neutral>  (78) 
7.35437e-05

>  <r_epik_State_Penalty>  (78) 
1.09315

>  <r_epik_Charging_Adjusted_Penalty>  (78) 
2.13427

>  <i_epik_Tot_Q>  (78) 
-1

>  <i_epik_Tot_abs_Q>  (78) 
1

>  <s_epik_Chemistry_Notes>  (78) 
This compound has an ester and may undergo hydrolysis at high or low pH.

>  <s_lp_Force_Field>  (78) 
OPLS3e

>  <r_lp_Energy>  (78) 
42.4448

>  <b_lp_Chiralities_Consistent>  (78) 
1

>  <s_lp_Variant>  (78) 
23:0-2

>  <s_i_glide_gridfile>  (78) 
pfpi4k_grid

>  <i_i_glide_lignum>  (78) 
4

>  <i_i_glide_rotatable_bonds>  (78) 
2

>  <r_i_docking_score>  (78) 
-2.40357

>  <r_i_glide_ligand_efficiency>  (78) 
-0.100149

>  <r_i_glide_ligand_efficiency_sa>  (78) 
-0.288879

>  <r_i_glide_ligand_efficiency_ln>  (78) 
-0.575284

>  <r_i_glide_gscore>  (78) 
-2.40357

>  <r_i_glide_lipo>  (78) 
-0.27334

>  <r_i_glide_hbond>  (78) 
-0.088619

>  <r_i_glide_metal>  (78) 
-0

>  <r_i_glide_rewards>  (78) 
-1.14966

>  <r_i_glide_evdw>  (78) 
-23.2588

>  <r_i_glide_ecoul>  (78) 
1.9637

>  <r_i_glide_erotb>  (78) 
0

>  <r_i_glide_esite>  (78) 
-0.0235634

>  <r_i_glide_emodel>  (78) 
-24.688

>  <r_i_glide_energy>  (78) 
-21.2951

>  <r_i_glide_einternal>  (78) 
1.44946

>  <r_i_glide_intrahb_reward>  (78) 
-0

>  <i_i_glide_confnum>  (78) 
2

>  <i_i_glide_posenum>  (78) 
1

>  <r_i_glide_eff_state_penalty>  (78) 
0

>  <ligand_id>  (78) 
23

>  <original_smiles>  (78) 
CC(C)C1CC2OC(=O)C(O)C2C2(C)C=c3oc(O)cc3=CC12C

>  <smiles>  (78) 
[H]OC1([H])C(=O)OC2([H])C([H])([H])C([H])(C([H])(C([H])([H])[H])C([H])([H])[H])C3(C([H])([H])[H])C([H])=c4c([H])c([O-])oc4=C([H])C3(C([H])([H])[H])C12[H]

$$$$
24:0:0
     RDKit          3D

 22 25  0  0  1  0  0  0  0  0999 V2000
    4.1661   -0.7507    1.6586 C   0  0  0  0  0  0  0  0  0  0  0  0
    3.3932   -1.8655    1.4568 N   0  0  0  0  0  0  0  0  0  0  0  0
    4.0311   -2.3830    0.4150 C   0  0  0  0  0  0  0  0  0  0  0  0
    5.1015   -1.6664    0.0394 N   0  0  0  0  0  0  0  0  0  0  0  0
    5.2181   -0.5955    0.8513 N   0  0  0  0  0  0  0  0  0  0  0  0
    6.0604   -1.9900   -1.0197 C   0  0  0  0  0  0  0  0  0  0  0  0
    5.6281   -3.2856   -1.7687 C   0  0  1  0  0  0  0  0  0  0  0  0
    5.0970   -4.2901   -0.6922 C   0  0  0  0  0  0  0  0  0  0  0  0
    3.7284   -3.6400   -0.3521 C   0  0  2  0  0  0  0  0  0  0  0  0
    3.3722   -3.2671   -1.6937 N   0  0  0  0  0  0  0  0  0  0  0  0
    2.2009   -3.0544   -2.3065 N   0  0  0  0  0  0  0  0  0  0  0  0
    2.6262   -2.6820   -3.5226 C   0  0  0  0  0  0  0  0  0  0  0  0
    3.9933   -2.6492   -3.7241 N   0  0  0  0  0  0  0  0  0  0  0  0
    4.3609   -3.0483   -2.5161 C   0  0  0  0  0  0  0  0  0  0  0  0
    3.9623   -0.0400    2.4476 H   0  0  0  0  0  0  0  0  0  0  0  0
    6.1454   -1.1478   -1.7051 H   0  0  0  0  0  0  0  0  0  0  0  0
    7.0331   -2.1450   -0.5501 H   0  0  0  0  0  0  0  0  0  0  0  0
    6.4039   -3.7005   -2.4163 H   0  0  0  0  0  0  0  0  0  0  0  0
    4.9373   -5.2709   -1.1458 H   0  0  0  0  0  0  0  0  0  0  0  0
    5.7553   -4.4255    0.1688 H   0  0  0  0  0  0  0  0  0  0  0  0
    2.9961   -4.2884    0.1298 H   0  0  0  0  0  0  0  0  0  0  0  0
    1.9151   -2.4226   -4.2948 H   0  0  0  0  0  0  0  0  0  0  0  0
  1  5  2  0
  1  2  1  0
  1 15  1  0
  2  3  2  0
  3  9  1  0
  3  4  1  0
  4  5  1  0
  4  6  1  0
  6  7  1  0
  6 16  1  0
  6 17  1  0
  7 14  1  0
  7  8  1  0
  7 18  1  6
  8  9  1  0
  8 19  1  0
  8 20  1  0
  9 10  1  0
  9 21  1  1
 10 14  1  0
 10 11  1  0
 11 12  2  0
 12 13  1  0
 12 22  1  0
 13 14  2  0
M  END
>  <i_m_ct_stereo_status>  (79) 
1

>  <s_m_source_file>  (79) 
/var/tmp/pbs.5083858.sched01/tmplcwk7gb1/30cq16h13y.sdf

>  <i_m_source_file_index>  (79) 
5

>  <i_lp_mmshare_version>  (79) 
48012

>  <i_f3d_flags>  (79) 
0

>  <s_epik_input>  (79) 
bjFbY0hdbm4oYzEyKVtDSDJdW0NAQEhdM2M0bihbQ0BIXTJbQ0gyXTMpbltjSF1uNA==

>  <s_epik_cmdline>  (79) 
J2VwaWtfcHl0aG9uJywgJy1waHQnLCAnMi4wJywgJy1waCcsICc3LjAnLCAnLXRuJywgJzgnLCAnLW1hJywgJzIwMCcsICctaW1hZScsICc8aW5maWxlLm1hZT4nLCAnLW9tYWUnLCAnPG91dGZpbGUubWFlPic=

>  <r_lp_tautomer_probability>  (79) 
1

>  <r_epik_Ionization_Penalty>  (79) 
5.02659e-06

>  <r_epik_Ionization_Penalty_Charging>  (79) 
0

>  <r_epik_Ionization_Penalty_Neutral>  (79) 
5.02659e-06

>  <r_epik_State_Penalty>  (79) 
-0

>  <r_epik_Charging_Adjusted_Penalty>  (79) 
0

>  <i_epik_Tot_Q>  (79) 
0

>  <i_epik_Tot_abs_Q>  (79) 
0

>  <s_lp_Force_Field>  (79) 
OPLS3e

>  <r_lp_Energy>  (79) 
23.6718

>  <b_lp_Chiralities_Consistent>  (79) 
1

>  <s_lp_Variant>  (79) 
24:0-1

>  <s_i_glide_gridfile>  (79) 
pfpi4k_grid

>  <i_i_glide_lignum>  (79) 
5

>  <i_i_glide_rotatable_bonds>  (79) 
0

>  <r_i_docking_score>  (79) 
-3.96523

>  <r_i_glide_ligand_efficiency>  (79) 
-0.283231

>  <r_i_glide_ligand_efficiency_sa>  (79) 
-0.682627

>  <r_i_glide_ligand_efficiency_ln>  (79) 
-1.08963

>  <r_i_glide_gscore>  (79) 
-3.96523

>  <r_i_glide_lipo>  (79) 
-0.203559

>  <r_i_glide_hbond>  (79) 
-0.00173813

>  <r_i_glide_metal>  (79) 
-0

>  <r_i_glide_rewards>  (79) 
-2.58423

>  <r_i_glide_evdw>  (79) 
-23.4952

>  <r_i_glide_ecoul>  (79) 
0.0713531

>  <r_i_glide_erotb>  (79) 
0

>  <r_i_glide_esite>  (79) 
-0.0116495

>  <r_i_glide_emodel>  (79) 
-29.0182

>  <r_i_glide_energy>  (79) 
-23.4238

>  <r_i_glide_einternal>  (79) 
0

>  <r_i_glide_intrahb_reward>  (79) 
-0

>  <i_i_glide_confnum>  (79) 
1

>  <i_i_glide_posenum>  (79) 
3

>  <r_i_glide_eff_state_penalty>  (79) 
0

>  <ligand_id>  (79) 
24

>  <original_smiles>  (79) 
c1nc2n(n1)CC1CC2n2ncnc21

>  <smiles>  (79) 
[H]c1nc2n(n1)C([H])([H])C1([H])c3nc([H])nn3C2([H])C1([H])[H]

$$$$
24:0:1
     RDKit          3D

 22 25  0  0  1  0  0  0  0  0999 V2000
   -0.5787   -6.3352    5.4812 C   0  0  0  0  0  0  0  0  0  0  0  0
   -1.0540   -6.6585    4.2389 N   0  0  0  0  0  0  0  0  0  0  0  0
   -0.0103   -7.3404    3.7791 C   0  0  0  0  0  0  0  0  0  0  0  0
    0.9892   -7.4394    4.6685 N   0  0  0  0  0  0  0  0  0  0  0  0
    0.6333   -6.7933    5.7974 N   0  0  0  0  0  0  0  0  0  0  0  0
    2.2513   -8.1655    4.5074 C   0  0  0  0  0  0  0  0  0  0  0  0
    2.3475   -8.7599    3.0681 C   0  0  1  0  0  0  0  0  0  0  0  0
    0.9314   -9.3143    2.6976 C   0  0  0  0  0  0  0  0  0  0  0  0
    0.1707   -7.9868    2.4378 C   0  0  2  0  0  0  0  0  0  0  0  0
    1.2256   -7.2885    1.7594 N   0  0  0  0  0  0  0  0  0  0  0  0
    1.2505   -6.2560    0.8998 N   0  0  0  0  0  0  0  0  0  0  0  0
    2.5794   -6.1038    0.7471 C   0  0  0  0  0  0  0  0  0  0  0  0
    3.3899   -6.9499    1.4768 N   0  0  0  0  0  0  0  0  0  0  0  0
    2.4411   -7.6599    2.0660 C   0  0  0  0  0  0  0  0  0  0  0  0
   -1.1618   -5.7848    6.2068 H   0  0  0  0  0  0  0  0  0  0  0  0
    3.0838   -7.5001    4.7309 H   0  0  0  0  0  0  0  0  0  0  0  0
    2.2626   -8.9701    5.2401 H   0  0  0  0  0  0  0  0  0  0  0  0
    3.1523   -9.4861    2.9414 H   0  0  0  0  0  0  0  0  0  0  0  0
    0.9983   -9.8854    1.7725 H   0  0  0  0  0  0  0  0  0  0  0  0
    0.4715   -9.9550    3.4585 H   0  0  0  0  0  0  0  0  0  0  0  0
   -0.7460   -8.0596    1.8535 H   0  0  0  0  0  0  0  0  0  0  0  0
    2.9791   -5.3689    0.0603 H   0  0  0  0  0  0  0  0  0  0  0  0
  1  5  2  0
  1  2  1  0
  1 15  1  0
  2  3  2  0
  3  9  1  0
  3  4  1  0
  4  5  1  0
  4  6  1  0
  6  7  1  0
  6 16  1  0
  6 17  1  0
  7 14  1  0
  7  8  1  0
  7 18  1  1
  8  9  1  0
  8 19  1  0
  8 20  1  0
  9 10  1  0
  9 21  1  6
 10 14  1  0
 10 11  1  0
 11 12  2  0
 12 13  1  0
 12 22  1  0
 13 14  2  0
M  END
>  <i_m_ct_stereo_status>  (80) 
1

>  <s_m_source_file>  (80) 
/var/tmp/pbs.5083858.sched01/tmplcwk7gb1/30cq16h13y.sdf

>  <i_m_source_file_index>  (80) 
5

>  <i_lp_mmshare_version>  (80) 
48012

>  <i_f3d_flags>  (80) 
0

>  <s_epik_input>  (80) 
bjFbY0hdbm4oYzEyKVtDSDJdW0NAQEhdM2M0bihbQ0BIXTJbQ0gyXTMpbltjSF1uNA==

>  <s_epik_cmdline>  (80) 
J2VwaWtfcHl0aG9uJywgJy1waHQnLCAnMi4wJywgJy1waCcsICc3LjAnLCAnLXRuJywgJzgnLCAnLW1hJywgJzIwMCcsICctaW1hZScsICc8aW5maWxlLm1hZT4nLCAnLW9tYWUnLCAnPG91dGZpbGUubWFlPic=

>  <r_lp_tautomer_probability>  (80) 
1

>  <r_epik_Ionization_Penalty>  (80) 
5.02659e-06

>  <r_epik_Ionization_Penalty_Charging>  (80) 
0

>  <r_epik_Ionization_Penalty_Neutral>  (80) 
5.02659e-06

>  <r_epik_State_Penalty>  (80) 
-0

>  <r_epik_Charging_Adjusted_Penalty>  (80) 
0

>  <i_epik_Tot_Q>  (80) 
0

>  <i_epik_Tot_abs_Q>  (80) 
0

>  <s_lp_Force_Field>  (80) 
OPLS3e

>  <r_lp_Energy>  (80) 
23.6718

>  <b_lp_Chiralities_Consistent>  (80) 
1

>  <s_lp_Variant>  (80) 
24:0-1

>  <s_i_glide_gridfile>  (80) 
pfpi4k_grid

>  <i_i_glide_lignum>  (80) 
5

>  <i_i_glide_rotatable_bonds>  (80) 
0

>  <r_i_docking_score>  (80) 
-3.88002

>  <r_i_glide_ligand_efficiency>  (80) 
-0.277144

>  <r_i_glide_ligand_efficiency_sa>  (80) 
-0.667958

>  <r_i_glide_ligand_efficiency_ln>  (80) 
-1.06622

>  <r_i_glide_gscore>  (80) 
-3.88002

>  <r_i_glide_lipo>  (80) 
-0.0127263

>  <r_i_glide_hbond>  (80) 
-0.150063

>  <r_i_glide_metal>  (80) 
-0

>  <r_i_glide_rewards>  (80) 
-2.12598

>  <r_i_glide_evdw>  (80) 
-15.2753

>  <r_i_glide_ecoul>  (80) 
-4.57695

>  <r_i_glide_erotb>  (80) 
0

>  <r_i_glide_esite>  (80) 
-0.140943

>  <r_i_glide_emodel>  (80) 
-25.3476

>  <r_i_glide_energy>  (80) 
-19.8523

>  <r_i_glide_einternal>  (80) 
0

>  <r_i_glide_intrahb_reward>  (80) 
-0

>  <i_i_glide_confnum>  (80) 
2

>  <i_i_glide_posenum>  (80) 
7

>  <r_i_glide_eff_state_penalty>  (80) 
0

>  <ligand_id>  (80) 
24

>  <original_smiles>  (80) 
c1nc2n(n1)CC1CC2n2ncnc21

>  <smiles>  (80) 
[H]c1nc2n(n1)C([H])([H])C1([H])c3nc([H])nn3C2([H])C1([H])[H]

$$$$
24:0:2
     RDKit          3D

 22 25  0  0  1  0  0  0  0  0999 V2000
    3.0181   -1.4902    1.8537 C   0  0  0  0  0  0  0  0  0  0  0  0
    2.6122   -2.6113    1.1755 N   0  0  0  0  0  0  0  0  0  0  0  0
    3.5185   -2.6256    0.2107 C   0  0  0  0  0  0  0  0  0  0  0  0
    4.4370   -1.6541    0.3328 N   0  0  0  0  0  0  0  0  0  0  0  0
    4.1323   -0.8972    1.4067 N   0  0  0  0  0  0  0  0  0  0  0  0
    5.6318   -1.4529   -0.4876 C   0  0  0  0  0  0  0  0  0  0  0  0
    5.6682   -2.4913   -1.6513 C   0  0  1  0  0  0  0  0  0  0  0  0
    5.1925   -3.8636   -1.0703 C   0  0  0  0  0  0  0  0  0  0  0  0
    3.6714   -3.5957   -0.9234 C   0  0  2  0  0  0  0  0  0  0  0  0
    3.4993   -2.8792   -2.1555 N   0  0  0  0  0  0  0  0  0  0  0  0
    2.4533   -2.6696   -2.9723 N   0  0  0  0  0  0  0  0  0  0  0  0
    2.9996   -1.8427   -3.8771 C   0  0  0  0  0  0  0  0  0  0  0  0
    4.3314   -1.5342   -3.6986 N   0  0  0  0  0  0  0  0  0  0  0  0
    4.5470   -2.2398   -2.6017 C   0  0  0  0  0  0  0  0  0  0  0  0
    2.5001   -1.1180    2.7253 H   0  0  0  0  0  0  0  0  0  0  0  0
    5.6503   -0.4262   -0.8529 H   0  0  0  0  0  0  0  0  0  0  0  0
    6.4976   -1.5913    0.1592 H   0  0  0  0  0  0  0  0  0  0  0  0
    6.6280   -2.5457   -2.1678 H   0  0  0  0  0  0  0  0  0  0  0  0
    5.3525   -4.6542   -1.8058 H   0  0  0  0  0  0  0  0  0  0  0  0
    5.6844   -4.1630   -0.1431 H   0  0  0  0  0  0  0  0  0  0  0  0
    3.0305   -4.4740   -0.8411 H   0  0  0  0  0  0  0  0  0  0  0  0
    2.4174   -1.4457   -4.6967 H   0  0  0  0  0  0  0  0  0  0  0  0
  1  5  2  0
  1  2  1  0
  1 15  1  0
  2  3  2  0
  3  9  1  0
  3  4  1  0
  4  5  1  0
  4  6  1  0
  6  7  1  0
  6 16  1  0
  6 17  1  0
  7 14  1  0
  7  8  1  0
  7 18  1  6
  8  9  1  0
  8 19  1  0
  8 20  1  0
  9 10  1  0
  9 21  1  1
 10 14  1  0
 10 11  1  0
 11 12  2  0
 12 13  1  0
 12 22  1  0
 13 14  2  0
M  END
>  <i_m_ct_stereo_status>  (81) 
1

>  <s_m_source_file>  (81) 
/var/tmp/pbs.5083858.sched01/tmplcwk7gb1/30cq16h13y.sdf

>  <i_m_source_file_index>  (81) 
5

>  <i_lp_mmshare_version>  (81) 
48012

>  <i_f3d_flags>  (81) 
0

>  <s_epik_input>  (81) 
bjFbY0hdbm4oYzEyKVtDSDJdW0NAQEhdM2M0bihbQ0BIXTJbQ0gyXTMpbltjSF1uNA==

>  <s_epik_cmdline>  (81) 
J2VwaWtfcHl0aG9uJywgJy1waHQnLCAnMi4wJywgJy1waCcsICc3LjAnLCAnLXRuJywgJzgnLCAnLW1hJywgJzIwMCcsICctaW1hZScsICc8aW5maWxlLm1hZT4nLCAnLW9tYWUnLCAnPG91dGZpbGUubWFlPic=

>  <r_lp_tautomer_probability>  (81) 
1

>  <r_epik_Ionization_Penalty>  (81) 
5.02659e-06

>  <r_epik_Ionization_Penalty_Charging>  (81) 
0

>  <r_epik_Ionization_Penalty_Neutral>  (81) 
5.02659e-06

>  <r_epik_State_Penalty>  (81) 
-0

>  <r_epik_Charging_Adjusted_Penalty>  (81) 
0

>  <i_epik_Tot_Q>  (81) 
0

>  <i_epik_Tot_abs_Q>  (81) 
0

>  <s_lp_Force_Field>  (81) 
OPLS3e

>  <r_lp_Energy>  (81) 
23.6718

>  <b_lp_Chiralities_Consistent>  (81) 
1

>  <s_lp_Variant>  (81) 
24:0-1

>  <s_i_glide_gridfile>  (81) 
pfpi4k_grid

>  <i_i_glide_lignum>  (81) 
5

>  <i_i_glide_rotatable_bonds>  (81) 
0

>  <r_i_docking_score>  (81) 
-3.7106

>  <r_i_glide_ligand_efficiency>  (81) 
-0.265043

>  <r_i_glide_ligand_efficiency_sa>  (81) 
-0.638791

>  <r_i_glide_ligand_efficiency_ln>  (81) 
-1.01966

>  <r_i_glide_gscore>  (81) 
-3.7106

>  <r_i_glide_lipo>  (81) 
-0.0339218

>  <r_i_glide_hbond>  (81) 
0

>  <r_i_glide_metal>  (81) 
-0

>  <r_i_glide_rewards>  (81) 
-2.44524

>  <r_i_glide_evdw>  (81) 
-22.2631

>  <r_i_glide_ecoul>  (81) 
-0.23807

>  <r_i_glide_erotb>  (81) 
0

>  <r_i_glide_esite>  (81) 
-0.0825698

>  <r_i_glide_emodel>  (81) 
-27.7337

>  <r_i_glide_energy>  (81) 
-22.5012

>  <r_i_glide_einternal>  (81) 
0

>  <r_i_glide_intrahb_reward>  (81) 
-0

>  <i_i_glide_confnum>  (81) 
1

>  <i_i_glide_posenum>  (81) 
8

>  <r_i_glide_eff_state_penalty>  (81) 
0

>  <ligand_id>  (81) 
24

>  <original_smiles>  (81) 
c1nc2n(n1)CC1CC2n2ncnc21

>  <smiles>  (81) 
[H]c1nc2n(n1)C([H])([H])C1([H])c3nc([H])nn3C2([H])C1([H])[H]

$$$$
25:0:0
     RDKit          3D

 12 13  0  0  1  0  0  0  0  0999 V2000
    1.8485  -10.4130    2.8822 C   0  0  0  0  0  0  0  0  0  0  0  0
    2.5061   -9.4331    2.1143 C   0  0  0  0  0  0  0  0  0  0  0  0
    1.9531   -8.2669    1.7176 N   0  0  0  0  0  0  0  0  0  0  0  0
    0.6652   -8.1079    2.1149 C   0  0  0  0  0  0  0  0  0  0  0  0
   -0.1773   -7.0967    1.9120 N   0  0  0  0  0  0  0  0  0  0  0  0
   -1.3602   -7.4671    2.5456 N   0  0  0  0  0  0  0  0  0  0  0  0
   -1.2992   -8.6330    3.1179 N   0  0  0  0  0  0  0  0  0  0  0  0
   -0.0403   -9.0554    2.8697 N   0  0  0  0  0  0  0  0  0  0  0  0
    0.5075  -10.2616    3.2974 C   0  0  0  0  0  0  0  0  0  0  0  0
    2.3792  -11.3166    3.1423 H   0  0  0  0  0  0  0  0  0  0  0  0
    3.5301   -9.5975    1.8062 H   0  0  0  0  0  0  0  0  0  0  0  0
   -0.0706  -10.9669    3.8796 H   0  0  0  0  0  0  0  0  0  0  0  0
  1  9  2  0
  1  2  1  0
  1 10  1  0
  2  3  2  0
  2 11  1  0
  3  4  1  0
  4  8  1  0
  4  5  2  0
  5  6  1  0
  6  7  2  0
  7  8  1  0
  8  9  1  0
  9 12  1  0
M  END
>  <i_m_ct_stereo_status>  (82) 
1

>  <s_m_source_file>  (82) 
/var/tmp/pbs.5083858.sched01/tmp8cos4qip/358mxs1jog.sdf

>  <i_m_source_file_index>  (82) 
1

>  <i_lp_mmshare_version>  (82) 
48012

>  <i_f3d_flags>  (82) 
0

>  <s_epik_input>  (82) 
bjFbY0hdW2NIXVtjSF1uKGMxMilubm4y

>  <s_epik_cmdline>  (82) 
J2VwaWtfcHl0aG9uJywgJy1waHQnLCAnMi4wJywgJy1waCcsICc3LjAnLCAnLXRuJywgJzgnLCAnLW1hJywgJzIwMCcsICctaW1hZScsICc8aW5maWxlLm1hZT4nLCAnLW9tYWUnLCAnPG91dGZpbGUubWFlPic=

>  <r_lp_tautomer_probability>  (82) 
1

>  <r_epik_Ionization_Penalty>  (82) 
3.47943e-11

>  <r_epik_Ionization_Penalty_Charging>  (82) 
0

>  <r_epik_Ionization_Penalty_Neutral>  (82) 
3.47943e-11

>  <r_epik_State_Penalty>  (82) 
-0

>  <r_epik_Charging_Adjusted_Penalty>  (82) 
0

>  <i_epik_Tot_Q>  (82) 
0

>  <i_epik_Tot_abs_Q>  (82) 
0

>  <s_lp_Force_Field>  (82) 
OPLS3e

>  <r_lp_Energy>  (82) 
14.6899

>  <b_lp_Chiralities_Consistent>  (82) 
1

>  <s_lp_Variant>  (82) 
25:0-1

>  <s_i_glide_gridfile>  (82) 
pfpi4k_grid

>  <i_i_glide_lignum>  (82) 
1

>  <i_i_glide_rotatable_bonds>  (82) 
0

>  <r_i_docking_score>  (82) 
-3.98091

>  <r_i_glide_ligand_efficiency>  (82) 
-0.442324

>  <r_i_glide_ligand_efficiency_sa>  (82) 
-0.92007

>  <r_i_glide_ligand_efficiency_ln>  (82) 
-1.24512

>  <r_i_glide_gscore>  (82) 
-3.98091

>  <r_i_glide_lipo>  (82) 
-0.0957746

>  <r_i_glide_hbond>  (82) 
0

>  <r_i_glide_metal>  (82) 
-0

>  <r_i_glide_rewards>  (82) 
-2.25

>  <r_i_glide_evdw>  (82) 
-16.2133

>  <r_i_glide_ecoul>  (82) 
-3.44572

>  <r_i_glide_erotb>  (82) 
0

>  <r_i_glide_esite>  (82) 
-0.307614

>  <r_i_glide_emodel>  (82) 
-25.6428

>  <r_i_glide_energy>  (82) 
-19.659

>  <r_i_glide_einternal>  (82) 
0

>  <r_i_glide_intrahb_reward>  (82) 
-0

>  <i_i_glide_confnum>  (82) 
1

>  <i_i_glide_posenum>  (82) 
34

>  <r_i_glide_eff_state_penalty>  (82) 
0

>  <ligand_id>  (82) 
25

>  <original_smiles>  (82) 
c1cnc2nnnn2c1

>  <smiles>  (82) 
[H]c1nc2nnnn2c([H])c1[H]

$$$$
25:0:1
     RDKit          3D

 12 13  0  0  1  0  0  0  0  0999 V2000
    0.2407  -10.1176    3.0060 C   0  0  0  0  0  0  0  0  0  0  0  0
   -0.9620   -9.3967    2.8758 C   0  0  0  0  0  0  0  0  0  0  0  0
   -1.0607   -8.1442    2.3877 N   0  0  0  0  0  0  0  0  0  0  0  0
    0.1296   -7.6163    2.0083 C   0  0  0  0  0  0  0  0  0  0  0  0
    0.4035   -6.4260    1.4837 N   0  0  0  0  0  0  0  0  0  0  0  0
    1.7840   -6.4069    1.3025 N   0  0  0  0  0  0  0  0  0  0  0  0
    2.3692   -7.5061    1.6785 N   0  0  0  0  0  0  0  0  0  0  0  0
    1.3555   -8.2826    2.1184 N   0  0  0  0  0  0  0  0  0  0  0  0
    1.4859   -9.5734    2.6229 C   0  0  0  0  0  0  0  0  0  0  0  0
    0.2132  -11.1159    3.4166 H   0  0  0  0  0  0  0  0  0  0  0  0
   -1.8914   -9.8541    3.1832 H   0  0  0  0  0  0  0  0  0  0  0  0
    2.4497  -10.0580    2.6919 H   0  0  0  0  0  0  0  0  0  0  0  0
  1  9  2  0
  1  2  1  0
  1 10  1  0
  2  3  2  0
  2 11  1  0
  3  4  1  0
  4  8  1  0
  4  5  2  0
  5  6  1  0
  6  7  2  0
  7  8  1  0
  8  9  1  0
  9 12  1  0
M  END
>  <i_m_ct_stereo_status>  (83) 
1

>  <s_m_source_file>  (83) 
/var/tmp/pbs.5083858.sched01/tmp8cos4qip/358mxs1jog.sdf

>  <i_m_source_file_index>  (83) 
1

>  <i_lp_mmshare_version>  (83) 
48012

>  <i_f3d_flags>  (83) 
0

>  <s_epik_input>  (83) 
bjFbY0hdW2NIXVtjSF1uKGMxMilubm4y

>  <s_epik_cmdline>  (83) 
J2VwaWtfcHl0aG9uJywgJy1waHQnLCAnMi4wJywgJy1waCcsICc3LjAnLCAnLXRuJywgJzgnLCAnLW1hJywgJzIwMCcsICctaW1hZScsICc8aW5maWxlLm1hZT4nLCAnLW9tYWUnLCAnPG91dGZpbGUubWFlPic=

>  <r_lp_tautomer_probability>  (83) 
1

>  <r_epik_Ionization_Penalty>  (83) 
3.47943e-11

>  <r_epik_Ionization_Penalty_Charging>  (83) 
0

>  <r_epik_Ionization_Penalty_Neutral>  (83) 
3.47943e-11

>  <r_epik_State_Penalty>  (83) 
-0

>  <r_epik_Charging_Adjusted_Penalty>  (83) 
0

>  <i_epik_Tot_Q>  (83) 
0

>  <i_epik_Tot_abs_Q>  (83) 
0

>  <s_lp_Force_Field>  (83) 
OPLS3e

>  <r_lp_Energy>  (83) 
14.6899

>  <b_lp_Chiralities_Consistent>  (83) 
1

>  <s_lp_Variant>  (83) 
25:0-1

>  <s_i_glide_gridfile>  (83) 
pfpi4k_grid

>  <i_i_glide_lignum>  (83) 
1

>  <i_i_glide_rotatable_bonds>  (83) 
0

>  <r_i_docking_score>  (83) 
-3.91551

>  <r_i_glide_ligand_efficiency>  (83) 
-0.435057

>  <r_i_glide_ligand_efficiency_sa>  (83) 
-0.904954

>  <r_i_glide_ligand_efficiency_ln>  (83) 
-1.22466

>  <r_i_glide_gscore>  (83) 
-3.91551

>  <r_i_glide_lipo>  (83) 
-0.077281

>  <r_i_glide_hbond>  (83) 
0

>  <r_i_glide_metal>  (83) 
-0

>  <r_i_glide_rewards>  (83) 
-2.25

>  <r_i_glide_evdw>  (83) 
-14.4358

>  <r_i_glide_ecoul>  (83) 
-4.08919

>  <r_i_glide_erotb>  (83) 
0

>  <r_i_glide_esite>  (83) 
-0.253061

>  <r_i_glide_emodel>  (83) 
-24.4107

>  <r_i_glide_energy>  (83) 
-18.525

>  <r_i_glide_einternal>  (83) 
0

>  <r_i_glide_intrahb_reward>  (83) 
-0

>  <i_i_glide_confnum>  (83) 
1

>  <i_i_glide_posenum>  (83) 
12

>  <r_i_glide_eff_state_penalty>  (83) 
0

>  <ligand_id>  (83) 
25

>  <original_smiles>  (83) 
c1cnc2nnnn2c1

>  <smiles>  (83) 
[H]c1nc2nnnn2c([H])c1[H]

$$$$
25:0:2
     RDKit          3D

 12 13  0  0  1  0  0  0  0  0999 V2000
    1.5031  -10.3229    2.9033 C   0  0  0  0  0  0  0  0  0  0  0  0
    0.1642   -9.9838    3.1758 C   0  0  0  0  0  0  0  0  0  0  0  0
   -0.4197   -8.8146    2.8498 N   0  0  0  0  0  0  0  0  0  0  0  0
    0.4095   -7.9518    2.2130 C   0  0  0  0  0  0  0  0  0  0  0  0
    0.1762   -6.7254    1.7500 N   0  0  0  0  0  0  0  0  0  0  0  0
    1.3836   -6.3014    1.2012 N   0  0  0  0  0  0  0  0  0  0  0  0
    2.3349   -7.1813    1.3029 N   0  0  0  0  0  0  0  0  0  0  0  0
    1.7504   -8.2288    1.9218 N   0  0  0  0  0  0  0  0  0  0  0  0
    2.3769   -9.4316    2.2436 C   0  0  0  0  0  0  0  0  0  0  0  0
    1.8712  -11.2941    3.2042 H   0  0  0  0  0  0  0  0  0  0  0  0
   -0.4731  -10.6934    3.6803 H   0  0  0  0  0  0  0  0  0  0  0  0
    3.4125   -9.6138    1.9980 H   0  0  0  0  0  0  0  0  0  0  0  0
  1  9  2  0
  1  2  1  0
  1 10  1  0
  2  3  2  0
  2 11  1  0
  3  4  1  0
  4  8  1  0
  4  5  2  0
  5  6  1  0
  6  7  2  0
  7  8  1  0
  8  9  1  0
  9 12  1  0
M  END
>  <i_m_ct_stereo_status>  (84) 
1

>  <s_m_source_file>  (84) 
/var/tmp/pbs.5083858.sched01/tmp8cos4qip/358mxs1jog.sdf

>  <i_m_source_file_index>  (84) 
1

>  <i_lp_mmshare_version>  (84) 
48012

>  <i_f3d_flags>  (84) 
0

>  <s_epik_input>  (84) 
bjFbY0hdW2NIXVtjSF1uKGMxMilubm4y

>  <s_epik_cmdline>  (84) 
J2VwaWtfcHl0aG9uJywgJy1waHQnLCAnMi4wJywgJy1waCcsICc3LjAnLCAnLXRuJywgJzgnLCAnLW1hJywgJzIwMCcsICctaW1hZScsICc8aW5maWxlLm1hZT4nLCAnLW9tYWUnLCAnPG91dGZpbGUubWFlPic=

>  <r_lp_tautomer_probability>  (84) 
1

>  <r_epik_Ionization_Penalty>  (84) 
3.47943e-11

>  <r_epik_Ionization_Penalty_Charging>  (84) 
0

>  <r_epik_Ionization_Penalty_Neutral>  (84) 
3.47943e-11

>  <r_epik_State_Penalty>  (84) 
-0

>  <r_epik_Charging_Adjusted_Penalty>  (84) 
0

>  <i_epik_Tot_Q>  (84) 
0

>  <i_epik_Tot_abs_Q>  (84) 
0

>  <s_lp_Force_Field>  (84) 
OPLS3e

>  <r_lp_Energy>  (84) 
14.6899

>  <b_lp_Chiralities_Consistent>  (84) 
1

>  <s_lp_Variant>  (84) 
25:0-1

>  <s_i_glide_gridfile>  (84) 
pfpi4k_grid

>  <i_i_glide_lignum>  (84) 
1

>  <i_i_glide_rotatable_bonds>  (84) 
0

>  <r_i_docking_score>  (84) 
-3.90643

>  <r_i_glide_ligand_efficiency>  (84) 
-0.434048

>  <r_i_glide_ligand_efficiency_sa>  (84) 
-0.902857

>  <r_i_glide_ligand_efficiency_ln>  (84) 
-1.22182

>  <r_i_glide_gscore>  (84) 
-3.90643

>  <r_i_glide_lipo>  (84) 
-0.154441

>  <r_i_glide_hbond>  (84) 
0

>  <r_i_glide_metal>  (84) 
-0

>  <r_i_glide_rewards>  (84) 
-2.25

>  <r_i_glide_evdw>  (84) 
-13.9295

>  <r_i_glide_ecoul>  (84) 
-3.64994

>  <r_i_glide_erotb>  (84) 
0

>  <r_i_glide_esite>  (84) 
-0.258025

>  <r_i_glide_emodel>  (84) 
-23.451

>  <r_i_glide_energy>  (84) 
-17.5795

>  <r_i_glide_einternal>  (84) 
0

>  <r_i_glide_intrahb_reward>  (84) 
-0

>  <i_i_glide_confnum>  (84) 
2

>  <i_i_glide_posenum>  (84) 
19

>  <r_i_glide_eff_state_penalty>  (84) 
0

>  <ligand_id>  (84) 
25

>  <original_smiles>  (84) 
c1cnc2nnnn2c1

>  <smiles>  (84) 
[H]c1nc2nnnn2c([H])c1[H]

$$$$
26:0:0
     RDKit          3D

 20 22  0  0  1  0  0  0  0  0999 V2000
    1.7450   -0.5335    1.6805 O   0  0  0  0  0  0  0  0  0  0  0  0
    0.7633    0.2166    2.3294 C   0  0  2  0  0  0  0  0  0  0  0  0
    1.0540    1.5752    2.2900 O   0  0  0  0  0  0  0  0  0  0  0  0
    0.7385    2.1992    3.5005 C   0  0  1  0  0  0  0  0  0  0  0  0
   -0.5886    2.8946    3.3397 N   0  0  0  0  0  0  0  0  0  0  0  0
   -1.7829    2.3626    2.8655 C   0  0  0  0  0  0  0  0  0  0  0  0
   -2.7255    3.3630    2.9108 C   0  0  0  0  0  0  0  0  0  0  0  0
   -2.1385    4.5206    3.4359 N   0  0  0  0  0  0  0  0  0  0  0  0
   -0.8651    4.1601    3.6526 C   0  0  0  0  0  0  0  0  0  0  0  0
    0.6505    1.1049    4.5300 C   0  0  1  0  0  0  0  0  0  0  0  0
   -0.4785    0.2290    4.4816 O   0  0  0  0  0  0  0  0  0  0  0  0
    0.7046   -0.1416    3.7824 C   0  0  1  0  0  0  0  0  0  0  0  0
    1.4838   -0.6071    0.7658 H   0  0  0  0  0  0  0  0  0  0  0  0
   -0.1799    0.0746    1.8018 H   0  0  0  0  0  0  0  0  0  0  0  0
    1.4627    2.9781    3.7037 H   0  0  0  0  0  0  0  0  0  0  0  0
   -1.8661    1.3415    2.5255 H   0  0  0  0  0  0  0  0  0  0  0  0
   -3.7706    3.3316    2.6169 H   0  0  0  0  0  0  0  0  0  0  0  0
   -0.1493    4.8681    4.0621 H   0  0  0  0  0  0  0  0  0  0  0  0
    1.1863    1.1650    5.4813 H   0  0  0  0  0  0  0  0  0  0  0  0
    1.2474   -0.9953    4.1965 H   0  0  0  0  0  0  0  0  0  0  0  0
  1  2  1  0
  1 13  1  0
  2 12  1  0
  2  3  1  0
  2 14  1  6
  3  4  1  0
  4  5  1  0
  4 10  1  0
  4 15  1  1
  5  9  1  0
  5  6  1  0
  6  7  2  0
  6 16  1  0
  7  8  1  0
  7 17  1  0
  8  9  2  0
  9 18  1  0
 10 12  1  0
 10 11  1  0
 10 19  1  1
 11 12  1  0
 12 20  1  1
M  END
>  <i_m_ct_stereo_status>  (85) 
1

>  <s_m_source_file>  (85) 
/var/tmp/pbs.5083858.sched01/tmp8cos4qip/358mxs1jog.sdf

>  <i_m_source_file_index>  (85) 
2

>  <i_lp_mmshare_version>  (85) 
48012

>  <i_f3d_flags>  (85) 
0

>  <s_epik_input>  (85) 
W0NASF0xMltDQEBIXShPMilbQ0BIXShbT0hdKU9bQ0BIXTFuM1tjSF1bY0hdbltjSF0z

>  <s_epik_cmdline>  (85) 
J2VwaWtfcHl0aG9uJywgJy1waHQnLCAnMi4wJywgJy1waCcsICc3LjAnLCAnLXRuJywgJzgnLCAnLW1hJywgJzIwMCcsICctaW1hZScsICc8aW5maWxlLm1hZT4nLCAnLW9tYWUnLCAnPG91dGZpbGUubWFlPic=

>  <r_lp_tautomer_probability>  (85) 
1

>  <r_epik_Ionization_Penalty>  (85) 
0.33757

>  <r_epik_Ionization_Penalty_Charging>  (85) 
0.337567

>  <r_epik_Ionization_Penalty_Neutral>  (85) 
3.31065e-06

>  <r_epik_State_Penalty>  (85) 
0.333029

>  <r_epik_Charging_Adjusted_Penalty>  (85) 
0.670595

>  <i_epik_Tot_Q>  (85) 
0

>  <i_epik_Tot_abs_Q>  (85) 
0

>  <s_epik_Chemistry_Notes>  (85) 
This compound contains an acetal/aminal-like group ( X-CH(R)-Y where X, Y are N, S, or O) that may be acid/base labile, releasing an aldehyde.

>  <s_lp_Force_Field>  (85) 
OPLS3e

>  <r_lp_Energy>  (85) 
10.7851

>  <b_lp_Chiralities_Consistent>  (85) 
1

>  <s_lp_Variant>  (85) 
26:0-1

>  <s_i_glide_gridfile>  (85) 
pfpi4k_grid

>  <i_i_glide_lignum>  (85) 
2

>  <i_i_glide_rotatable_bonds>  (85) 
2

>  <r_i_docking_score>  (85) 
-3.95672

>  <r_i_glide_ligand_efficiency>  (85) 
-0.329727

>  <r_i_glide_ligand_efficiency_sa>  (85) 
-0.754886

>  <r_i_glide_ligand_efficiency_ln>  (85) 
-1.13539

>  <r_i_glide_gscore>  (85) 
-3.95672

>  <r_i_glide_lipo>  (85) 
0

>  <r_i_glide_hbond>  (85) 
-0.16

>  <r_i_glide_metal>  (85) 
-0

>  <r_i_glide_rewards>  (85) 
-2.25

>  <r_i_glide_evdw>  (85) 
-12.5356

>  <r_i_glide_ecoul>  (85) 
-8.00906

>  <r_i_glide_erotb>  (85) 
0.543365

>  <r_i_glide_esite>  (85) 
-0.261944

>  <r_i_glide_emodel>  (85) 
-26.7602

>  <r_i_glide_energy>  (85) 
-20.5447

>  <r_i_glide_einternal>  (85) 
0.566601

>  <r_i_glide_intrahb_reward>  (85) 
-0

>  <i_i_glide_confnum>  (85) 
5

>  <i_i_glide_posenum>  (85) 
15

>  <r_i_glide_eff_state_penalty>  (85) 
0

>  <ligand_id>  (85) 
26

>  <original_smiles>  (85) 
OC1OC(n2ccnc2)C2OC12

>  <smiles>  (85) 
[H]OC1([H])OC([H])(n2c([H])nc([H])c2[H])C2([H])OC12[H]

$$$$
26:0:1
     RDKit          3D

 20 22  0  0  1  0  0  0  0  0999 V2000
    4.2729   -4.8796    0.3677 O   0  0  0  0  0  0  0  0  0  0  0  0
    4.6945   -3.5600    0.1121 C   0  0  2  0  0  0  0  0  0  0  0  0
    3.8478   -2.9292   -0.8181 O   0  0  0  0  0  0  0  0  0  0  0  0
    4.3493   -3.1013   -2.1178 C   0  0  1  0  0  0  0  0  0  0  0  0
    4.0077   -1.9080   -2.9322 N   0  0  0  0  0  0  0  0  0  0  0  0
    4.2603   -0.5718   -2.6505 C   0  0  0  0  0  0  0  0  0  0  0  0
    3.8209    0.1524   -3.7320 C   0  0  0  0  0  0  0  0  0  0  0  0
    3.3211   -0.7037   -4.6972 N   0  0  0  0  0  0  0  0  0  0  0  0
    3.4151   -1.9036   -4.1240 C   0  0  0  0  0  0  0  0  0  0  0  0
    5.8393   -3.2620   -1.9581 C   0  0  1  0  0  0  0  0  0  0  0  0
    6.5151   -2.3297   -1.1008 O   0  0  0  0  0  0  0  0  0  0  0  0
    6.0521   -3.5714   -0.5445 C   0  0  1  0  0  0  0  0  0  0  0  0
    4.2897   -5.3491   -0.4539 H   0  0  0  0  0  0  0  0  0  0  0  0
    4.6672   -2.9951    1.0406 H   0  0  0  0  0  0  0  0  0  0  0  0
    3.8639   -3.9559   -2.6014 H   0  0  0  0  0  0  0  0  0  0  0  0
    4.7553   -0.2466   -1.7441 H   0  0  0  0  0  0  0  0  0  0  0  0
    3.8357    1.2231   -3.9148 H   0  0  0  0  0  0  0  0  0  0  0  0
    3.0990   -2.7957   -4.6458 H   0  0  0  0  0  0  0  0  0  0  0  0
    6.4481   -3.7559   -2.7170 H   0  0  0  0  0  0  0  0  0  0  0  0
    6.8219   -4.2859   -0.2423 H   0  0  0  0  0  0  0  0  0  0  0  0
  1  2  1  0
  1 13  1  0
  2 12  1  0
  2  3  1  0
  2 14  1  1
  3  4  1  0
  4  5  1  0
  4 10  1  0
  4 15  1  6
  5  9  1  0
  5  6  1  0
  6  7  2  0
  6 16  1  0
  7  8  1  0
  7 17  1  0
  8  9  2  0
  9 18  1  0
 10 12  1  0
 10 11  1  0
 10 19  1  6
 11 12  1  0
 12 20  1  6
M  END
>  <i_m_ct_stereo_status>  (86) 
1

>  <s_m_source_file>  (86) 
/var/tmp/pbs.5083858.sched01/tmp8cos4qip/358mxs1jog.sdf

>  <i_m_source_file_index>  (86) 
2

>  <i_lp_mmshare_version>  (86) 
48012

>  <i_f3d_flags>  (86) 
0

>  <s_epik_input>  (86) 
W0NASF0xMltDQEBIXShPMilbQ0BIXShbT0hdKU9bQ0BIXTFuM1tjSF1bY0hdbltjSF0z

>  <s_epik_cmdline>  (86) 
J2VwaWtfcHl0aG9uJywgJy1waHQnLCAnMi4wJywgJy1waCcsICc3LjAnLCAnLXRuJywgJzgnLCAnLW1hJywgJzIwMCcsICctaW1hZScsICc8aW5maWxlLm1hZT4nLCAnLW9tYWUnLCAnPG91dGZpbGUubWFlPic=

>  <r_lp_tautomer_probability>  (86) 
1

>  <r_epik_Ionization_Penalty>  (86) 
0.33757

>  <r_epik_Ionization_Penalty_Charging>  (86) 
0.337567

>  <r_epik_Ionization_Penalty_Neutral>  (86) 
3.31065e-06

>  <r_epik_State_Penalty>  (86) 
0.333029

>  <r_epik_Charging_Adjusted_Penalty>  (86) 
0.670595

>  <i_epik_Tot_Q>  (86) 
0

>  <i_epik_Tot_abs_Q>  (86) 
0

>  <s_epik_Chemistry_Notes>  (86) 
This compound contains an acetal/aminal-like group ( X-CH(R)-Y where X, Y are N, S, or O) that may be acid/base labile, releasing an aldehyde.

>  <s_lp_Force_Field>  (86) 
OPLS3e

>  <r_lp_Energy>  (86) 
10.7851

>  <b_lp_Chiralities_Consistent>  (86) 
1

>  <s_lp_Variant>  (86) 
26:0-1

>  <s_i_glide_gridfile>  (86) 
pfpi4k_grid

>  <i_i_glide_lignum>  (86) 
2

>  <i_i_glide_rotatable_bonds>  (86) 
2

>  <r_i_docking_score>  (86) 
-3.72107

>  <r_i_glide_ligand_efficiency>  (86) 
-0.310089

>  <r_i_glide_ligand_efficiency_sa>  (86) 
-0.709926

>  <r_i_glide_ligand_efficiency_ln>  (86) 
-1.06777

>  <r_i_glide_gscore>  (86) 
-3.72107

>  <r_i_glide_lipo>  (86) 
-0.383474

>  <r_i_glide_hbond>  (86) 
-0.122268

>  <r_i_glide_metal>  (86) 
-0

>  <r_i_glide_rewards>  (86) 
-2.37535

>  <r_i_glide_evdw>  (86) 
-19.1179

>  <r_i_glide_ecoul>  (86) 
-2.77433

>  <r_i_glide_erotb>  (86) 
0.543365

>  <r_i_glide_esite>  (86) 
-0.0112981

>  <r_i_glide_emodel>  (86) 
-28.1636

>  <r_i_glide_energy>  (86) 
-21.8922

>  <r_i_glide_einternal>  (86) 
0.0837066

>  <r_i_glide_intrahb_reward>  (86) 
-0

>  <i_i_glide_confnum>  (86) 
1

>  <i_i_glide_posenum>  (86) 
4

>  <r_i_glide_eff_state_penalty>  (86) 
0

>  <ligand_id>  (86) 
26

>  <original_smiles>  (86) 
OC1OC(n2ccnc2)C2OC12

>  <smiles>  (86) 
[H]OC1([H])OC([H])(n2c([H])nc([H])c2[H])C2([H])OC12[H]

$$$$
26:0:2
     RDKit          3D

 20 22  0  0  1  0  0  0  0  0999 V2000
    4.2719   -1.7862   -3.7362 O   0  0  0  0  0  0  0  0  0  0  0  0
    4.0758   -1.7151   -2.3471 C   0  0  2  0  0  0  0  0  0  0  0  0
    5.2691   -1.4250   -1.6522 O   0  0  0  0  0  0  0  0  0  0  0  0
    5.3588   -2.1811   -0.4631 C   0  0  1  0  0  0  0  0  0  0  0  0
    4.9272   -1.3179    0.6912 N   0  0  0  0  0  0  0  0  0  0  0  0
    3.7395   -0.6123    0.8289 C   0  0  0  0  0  0  0  0  0  0  0  0
    3.7795    0.0217    2.0503 C   0  0  0  0  0  0  0  0  0  0  0  0
    4.9779   -0.2780    2.6880 N   0  0  0  0  0  0  0  0  0  0  0  0
    5.6090   -1.0666    1.8244 C   0  0  0  0  0  0  0  0  0  0  0  0
    4.4220   -3.3516   -0.6287 C   0  0  1  0  0  0  0  0  0  0  0  0
    3.0049   -3.1342   -0.5480 O   0  0  0  0  0  0  0  0  0  0  0  0
    3.6343   -3.0598   -1.8349 C   0  0  1  0  0  0  0  0  0  0  0  0
    4.7242   -2.6005   -3.9019 H   0  0  0  0  0  0  0  0  0  0  0  0
    3.3278   -0.9496   -2.1513 H   0  0  0  0  0  0  0  0  0  0  0  0
    6.3892   -2.4602   -0.2501 H   0  0  0  0  0  0  0  0  0  0  0  0
    2.9643   -0.6282    0.0767 H   0  0  0  0  0  0  0  0  0  0  0  0
    3.0352    0.6571    2.5123 H   0  0  0  0  0  0  0  0  0  0  0  0
    6.5848   -1.4805    2.0401 H   0  0  0  0  0  0  0  0  0  0  0  0
    4.7716   -4.3717   -0.4614 H   0  0  0  0  0  0  0  0  0  0  0  0
    3.3975   -3.8602   -2.5288 H   0  0  0  0  0  0  0  0  0  0  0  0
  1  2  1  0
  1 13  1  0
  2 12  1  0
  2  3  1  0
  2 14  1  6
  3  4  1  0
  4  5  1  0
  4 10  1  0
  4 15  1  1
  5  9  1  0
  5  6  1  0
  6  7  2  0
  6 16  1  0
  7  8  1  0
  7 17  1  0
  8  9  2  0
  9 18  1  0
 10 12  1  0
 10 11  1  0
 10 19  1  6
 11 12  1  0
 12 20  1  6
M  END
>  <i_m_ct_stereo_status>  (87) 
1

>  <s_m_source_file>  (87) 
/var/tmp/pbs.5083858.sched01/tmp8cos4qip/358mxs1jog.sdf

>  <i_m_source_file_index>  (87) 
2

>  <i_lp_mmshare_version>  (87) 
48012

>  <i_f3d_flags>  (87) 
0

>  <s_epik_input>  (87) 
W0NASF0xMltDQEBIXShPMilbQ0BIXShbT0hdKU9bQ0BIXTFuM1tjSF1bY0hdbltjSF0z

>  <s_epik_cmdline>  (87) 
J2VwaWtfcHl0aG9uJywgJy1waHQnLCAnMi4wJywgJy1waCcsICc3LjAnLCAnLXRuJywgJzgnLCAnLW1hJywgJzIwMCcsICctaW1hZScsICc8aW5maWxlLm1hZT4nLCAnLW9tYWUnLCAnPG91dGZpbGUubWFlPic=

>  <r_lp_tautomer_probability>  (87) 
1

>  <r_epik_Ionization_Penalty>  (87) 
0.33757

>  <r_epik_Ionization_Penalty_Charging>  (87) 
0.337567

>  <r_epik_Ionization_Penalty_Neutral>  (87) 
3.31065e-06

>  <r_epik_State_Penalty>  (87) 
0.333029

>  <r_epik_Charging_Adjusted_Penalty>  (87) 
0.670595

>  <i_epik_Tot_Q>  (87) 
0

>  <i_epik_Tot_abs_Q>  (87) 
0

>  <s_epik_Chemistry_Notes>  (87) 
This compound contains an acetal/aminal-like group ( X-CH(R)-Y where X, Y are N, S, or O) that may be acid/base labile, releasing an aldehyde.

>  <s_lp_Force_Field>  (87) 
OPLS3e

>  <r_lp_Energy>  (87) 
10.7851

>  <b_lp_Chiralities_Consistent>  (87) 
1

>  <s_lp_Variant>  (87) 
26:0-1

>  <s_i_glide_gridfile>  (87) 
pfpi4k_grid

>  <i_i_glide_lignum>  (87) 
2

>  <i_i_glide_rotatable_bonds>  (87) 
2

>  <r_i_docking_score>  (87) 
-3.26958

>  <r_i_glide_ligand_efficiency>  (87) 
-0.272465

>  <r_i_glide_ligand_efficiency_sa>  (87) 
-0.62379

>  <r_i_glide_ligand_efficiency_ln>  (87) 
-0.938212

>  <r_i_glide_gscore>  (87) 
-3.26958

>  <r_i_glide_lipo>  (87) 
-0.0740896

>  <r_i_glide_hbond>  (87) 
-0.0167285

>  <r_i_glide_metal>  (87) 
-0

>  <r_i_glide_rewards>  (87) 
-2.48487

>  <r_i_glide_evdw>  (87) 
-17.7383

>  <r_i_glide_ecoul>  (87) 
-2.08336

>  <r_i_glide_erotb>  (87) 
0.543365

>  <r_i_glide_esite>  (87) 
-0.0378434

>  <r_i_glide_emodel>  (87) 
-25.3001

>  <r_i_glide_energy>  (87) 
-19.8217

>  <r_i_glide_einternal>  (87) 
0.178196

>  <r_i_glide_intrahb_reward>  (87) 
-0

>  <i_i_glide_confnum>  (87) 
6

>  <i_i_glide_posenum>  (87) 
13

>  <r_i_glide_eff_state_penalty>  (87) 
0

>  <ligand_id>  (87) 
26

>  <original_smiles>  (87) 
OC1OC(n2ccnc2)C2OC12

>  <smiles>  (87) 
[H]OC1([H])OC([H])(n2c([H])nc([H])c2[H])C2([H])OC12[H]

$$$$
26:1:0
     RDKit          3D

 21 23  0  0  1  0  0  0  0  0999 V2000
    9.5447   -2.2511    0.4802 O   0  0  0  0  0  0  0  0  0  0  0  0
    8.6642   -3.0582   -0.2687 C   0  0  2  0  0  0  0  0  0  0  0  0
    7.5824   -2.3154   -0.7920 O   0  0  0  0  0  0  0  0  0  0  0  0
    6.5014   -2.3263    0.1106 C   0  0  1  0  0  0  0  0  0  0  0  0
    5.1920   -2.3407   -0.6346 N   0  0  0  0  0  0  0  0  0  0  0  0
    4.7831   -3.1200   -1.6911 C   0  0  0  0  0  0  0  0  0  0  0  0
    3.4606   -2.8287   -1.9825 C   0  0  0  0  0  0  0  0  0  0  0  0
    3.0223   -1.8615   -1.1087 N   0  0  0  0  0  0  0  0  0  0  0  0
    4.0882   -1.6089   -0.3545 C   0  0  0  0  0  0  0  0  0  0  0  0
    6.6716   -3.5845    0.9027 C   0  0  1  0  0  0  0  0  0  0  0  0
    6.9173   -4.7895    0.1630 O   0  0  0  0  0  0  0  0  0  0  0  0
    8.0388   -4.0463    0.6636 C   0  0  1  0  0  0  0  0  0  0  0  0
   10.1021   -1.7686   -0.1288 H   0  0  0  0  0  0  0  0  0  0  0  0
    9.2245   -3.5372   -1.0739 H   0  0  0  0  0  0  0  0  0  0  0  0
    6.5073   -1.4340    0.7344 H   0  0  0  0  0  0  0  0  0  0  0  0
    5.4427   -3.8498   -2.1279 H   0  0  0  0  0  0  0  0  0  0  0  0
    2.7902   -3.2451   -2.7171 H   0  0  0  0  0  0  0  0  0  0  0  0
    4.0416   -0.9066    0.4486 H   0  0  0  0  0  0  0  0  0  0  0  0
    6.2198   -3.6950    1.8847 H   0  0  0  0  0  0  0  0  0  0  0  0
    8.6008   -4.4845    1.4868 H   0  0  0  0  0  0  0  0  0  0  0  0
    2.0496   -1.4627   -1.0373 H   0  0  0  0  0  0  0  0  0  0  0  0
  1  2  1  0
  1 13  1  0
  2 12  1  0
  2  3  1  0
  2 14  1  6
  3  4  1  0
  4  5  1  0
  4 10  1  0
  4 15  1  1
  5  9  1  0
  5  6  1  0
  6  7  2  0
  6 16  1  0
  7  8  1  0
  7 17  1  0
  8  9  2  0
  8 21  1  0
  9 18  1  0
 10 12  1  0
 10 11  1  0
 10 19  1  1
 11 12  1  0
 12 20  1  1
M  CHG  1   8   1
M  END
>  <i_m_ct_stereo_status>  (88) 
1

>  <s_m_source_file>  (88) 
/var/tmp/pbs.5083858.sched01/tmp8cos4qip/358mxs1jog.sdf

>  <i_m_source_file_index>  (88) 
3

>  <i_lp_mmshare_version>  (88) 
48012

>  <i_f3d_flags>  (88) 
0

>  <s_epik_input>  (88) 
W0NASF0xMltDQEBIXShPMilbQ0BIXShbT0hdKU9bQ0BIXTFuM1tjSF1bY0hdbltjSF0z

>  <s_epik_cmdline>  (88) 
J2VwaWtfcHl0aG9uJywgJy1waHQnLCAnMi4wJywgJy1waCcsICc3LjAnLCAnLXRuJywgJzgnLCAnLW1hJywgJzIwMCcsICctaW1hZScsICc8aW5maWxlLm1hZT4nLCAnLW9tYWUnLCAnPG91dGZpbGUubWFlPic=

>  <r_lp_tautomer_probability>  (88) 
1

>  <r_epik_Ionization_Penalty>  (88) 
0.494107

>  <r_epik_Ionization_Penalty_Charging>  (88) 
0

>  <r_epik_Ionization_Penalty_Neutral>  (88) 
0.494107

>  <r_epik_State_Penalty>  (88) 
0.500065

>  <r_epik_Charging_Adjusted_Penalty>  (88) 
0.500065

>  <i_epik_Tot_Q>  (88) 
1

>  <i_epik_Tot_abs_Q>  (88) 
1

>  <s_epik_Chemistry_Notes>  (88) 
This compound contains an acetal/aminal-like group ( X-CH(R)-Y where X, Y are N, S, or O) that may be acid/base labile, releasing an aldehyde.

>  <s_lp_Force_Field>  (88) 
OPLS3e

>  <r_lp_Energy>  (88) 
17.5663

>  <b_lp_Chiralities_Consistent>  (88) 
1

>  <s_lp_Variant>  (88) 
26:0-2

>  <s_i_glide_gridfile>  (88) 
pfpi4k_grid

>  <i_i_glide_lignum>  (88) 
3

>  <i_i_glide_rotatable_bonds>  (88) 
2

>  <r_i_docking_score>  (88) 
-5.34597

>  <r_i_glide_ligand_efficiency>  (88) 
-0.445498

>  <r_i_glide_ligand_efficiency_sa>  (88) 
-1.01994

>  <r_i_glide_ligand_efficiency_ln>  (88) 
-1.53404

>  <r_i_glide_gscore>  (88) 
-5.34597

>  <r_i_glide_lipo>  (88) 
-0.27796

>  <r_i_glide_hbond>  (88) 
-0.302459

>  <r_i_glide_metal>  (88) 
-0

>  <r_i_glide_rewards>  (88) 
-2.29019

>  <r_i_glide_evdw>  (88) 
-13.489

>  <r_i_glide_ecoul>  (88) 
-14.5098

>  <r_i_glide_erotb>  (88) 
0.538104

>  <r_i_glide_esite>  (88) 
-0.162546

>  <r_i_glide_emodel>  (88) 
-39.9808

>  <r_i_glide_energy>  (88) 
-27.9988

>  <r_i_glide_einternal>  (88) 
0.39318

>  <r_i_glide_intrahb_reward>  (88) 
-0

>  <i_i_glide_confnum>  (88) 
5

>  <i_i_glide_posenum>  (88) 
12

>  <r_i_glide_eff_state_penalty>  (88) 
0

>  <ligand_id>  (88) 
26

>  <original_smiles>  (88) 
OC1OC(n2ccnc2)C2OC12

>  <smiles>  (88) 
[H]OC1([H])OC([H])(n2c([H])c([H])[n+]([H])c2[H])C2([H])OC12[H]

$$$$
26:1:1
     RDKit          3D

 21 23  0  0  1  0  0  0  0  0999 V2000
    8.9713   -1.8929    0.0703 O   0  0  0  0  0  0  0  0  0  0  0  0
    8.1825   -2.8644   -0.5760 C   0  0  2  0  0  0  0  0  0  0  0  0
    7.1987   -2.2827   -1.4089 O   0  0  0  0  0  0  0  0  0  0  0  0
    5.9872   -2.1148   -0.7031 C   0  0  1  0  0  0  0  0  0  0  0  0
    4.8078   -2.3573   -1.6059 N   0  0  0  0  0  0  0  0  0  0  0  0
    4.6848   -3.1165   -2.7530 C   0  0  0  0  0  0  0  0  0  0  0  0
    3.3608   -3.0544   -3.1960 C   0  0  0  0  0  0  0  0  0  0  0  0
    2.6696   -2.2563   -2.3210 N   0  0  0  0  0  0  0  0  0  0  0  0
    3.5570   -1.8777   -1.4156 C   0  0  0  0  0  0  0  0  0  0  0  0
    6.0184   -3.1280    0.4050 C   0  0  1  0  0  0  0  0  0  0  0  0
    6.3566   -4.4787    0.0594 O   0  0  0  0  0  0  0  0  0  0  0  0
    7.4114   -3.6025    0.4850 C   0  0  1  0  0  0  0  0  0  0  0  0
    9.7085   -1.6466   -0.4975 H   0  0  0  0  0  0  0  0  0  0  0  0
    8.8361   -3.5145   -1.1522 H   0  0  0  0  0  0  0  0  0  0  0  0
    5.8980   -1.0886   -0.3428 H   0  0  0  0  0  0  0  0  0  0  0  0
    5.5376   -3.6488   -3.1486 H   0  0  0  0  0  0  0  0  0  0  0  0
    2.8731   -3.5255   -4.0328 H   0  0  0  0  0  0  0  0  0  0  0  0
    3.2819   -1.2452   -0.5870 H   0  0  0  0  0  0  0  0  0  0  0  0
    5.4357   -2.9919    1.3128 H   0  0  0  0  0  0  0  0  0  0  0  0
    7.8555   -3.8076    1.4612 H   0  0  0  0  0  0  0  0  0  0  0  0
    1.6839   -1.9964   -2.3068 H   0  0  0  0  0  0  0  0  0  0  0  0
  1  2  1  0
  1 13  1  0
  2 12  1  0
  2  3  1  0
  2 14  1  6
  3  4  1  0
  4  5  1  0
  4 10  1  0
  4 15  1  1
  5  9  1  0
  5  6  1  0
  6  7  2  0
  6 16  1  0
  7  8  1  0
  7 17  1  0
  8  9  2  0
  8 21  1  0
  9 18  1  0
 10 12  1  0
 10 11  1  0
 10 19  1  1
 11 12  1  0
 12 20  1  1
M  CHG  1   8   1
M  END
>  <i_m_ct_stereo_status>  (89) 
1

>  <s_m_source_file>  (89) 
/var/tmp/pbs.5083858.sched01/tmp8cos4qip/358mxs1jog.sdf

>  <i_m_source_file_index>  (89) 
3

>  <i_lp_mmshare_version>  (89) 
48012

>  <i_f3d_flags>  (89) 
0

>  <s_epik_input>  (89) 
W0NASF0xMltDQEBIXShPMilbQ0BIXShbT0hdKU9bQ0BIXTFuM1tjSF1bY0hdbltjSF0z

>  <s_epik_cmdline>  (89) 
J2VwaWtfcHl0aG9uJywgJy1waHQnLCAnMi4wJywgJy1waCcsICc3LjAnLCAnLXRuJywgJzgnLCAnLW1hJywgJzIwMCcsICctaW1hZScsICc8aW5maWxlLm1hZT4nLCAnLW9tYWUnLCAnPG91dGZpbGUubWFlPic=

>  <r_lp_tautomer_probability>  (89) 
1

>  <r_epik_Ionization_Penalty>  (89) 
0.494107

>  <r_epik_Ionization_Penalty_Charging>  (89) 
0

>  <r_epik_Ionization_Penalty_Neutral>  (89) 
0.494107

>  <r_epik_State_Penalty>  (89) 
0.500065

>  <r_epik_Charging_Adjusted_Penalty>  (89) 
0.500065

>  <i_epik_Tot_Q>  (89) 
1

>  <i_epik_Tot_abs_Q>  (89) 
1

>  <s_epik_Chemistry_Notes>  (89) 
This compound contains an acetal/aminal-like group ( X-CH(R)-Y where X, Y are N, S, or O) that may be acid/base labile, releasing an aldehyde.

>  <s_lp_Force_Field>  (89) 
OPLS3e

>  <r_lp_Energy>  (89) 
17.5663

>  <b_lp_Chiralities_Consistent>  (89) 
1

>  <s_lp_Variant>  (89) 
26:0-2

>  <s_i_glide_gridfile>  (89) 
pfpi4k_grid

>  <i_i_glide_lignum>  (89) 
3

>  <i_i_glide_rotatable_bonds>  (89) 
2

>  <r_i_docking_score>  (89) 
-4.68569

>  <r_i_glide_ligand_efficiency>  (89) 
-0.390474

>  <r_i_glide_ligand_efficiency_sa>  (89) 
-0.893963

>  <r_i_glide_ligand_efficiency_ln>  (89) 
-1.34457

>  <r_i_glide_gscore>  (89) 
-4.68569

>  <r_i_glide_lipo>  (89) 
-0.405478

>  <r_i_glide_hbond>  (89) 
-0.271261

>  <r_i_glide_metal>  (89) 
-0

>  <r_i_glide_rewards>  (89) 
-2.25

>  <r_i_glide_evdw>  (89) 
-16.7981

>  <r_i_glide_ecoul>  (89) 
-8.38849

>  <r_i_glide_erotb>  (89) 
0.538104

>  <r_i_glide_esite>  (89) 
-0.198879

>  <r_i_glide_emodel>  (89) 
-35.403

>  <r_i_glide_energy>  (89) 
-25.1866

>  <r_i_glide_einternal>  (89) 
0.724779

>  <r_i_glide_intrahb_reward>  (89) 
-0

>  <i_i_glide_confnum>  (89) 
1

>  <i_i_glide_posenum>  (89) 
5

>  <r_i_glide_eff_state_penalty>  (89) 
0

>  <ligand_id>  (89) 
26

>  <original_smiles>  (89) 
OC1OC(n2ccnc2)C2OC12

>  <smiles>  (89) 
[H]OC1([H])OC([H])(n2c([H])c([H])[n+]([H])c2[H])C2([H])OC12[H]

$$$$
26:1:2
     RDKit          3D

 21 23  0  0  1  0  0  0  0  0999 V2000
    7.8151   -1.5296    0.3957 O   0  0  0  0  0  0  0  0  0  0  0  0
    7.0059   -2.4545   -0.2845 C   0  0  2  0  0  0  0  0  0  0  0  0
    6.4469   -1.8882   -1.4420 O   0  0  0  0  0  0  0  0  0  0  0  0
    5.1814   -1.3476   -1.1693 C   0  0  1  0  0  0  0  0  0  0  0  0
    4.3180   -1.4670   -2.3776 N   0  0  0  0  0  0  0  0  0  0  0  0
    3.9115   -0.4791   -3.2330 C   0  0  0  0  0  0  0  0  0  0  0  0
    3.0497   -1.0137   -4.1845 C   0  0  0  0  0  0  0  0  0  0  0  0
    2.9205   -2.3509   -3.9176 N   0  0  0  0  0  0  0  0  0  0  0  0
    3.6829   -2.5571   -2.8671 C   0  0  0  0  0  0  0  0  0  0  0  0
    4.6728   -2.1188    0.0082 C   0  0  1  0  0  0  0  0  0  0  0  0
    4.7814   -3.5446   -0.0683 O   0  0  0  0  0  0  0  0  0  0  0  0
    5.8333   -2.8109    0.5737 C   0  0  1  0  0  0  0  0  0  0  0  0
    7.2618   -0.9369    0.8831 H   0  0  0  0  0  0  0  0  0  0  0  0
    7.6196   -3.3032   -0.5733 H   0  0  0  0  0  0  0  0  0  0  0  0
    5.2695   -0.2813   -0.9699 H   0  0  0  0  0  0  0  0  0  0  0  0
    4.2141    0.5502   -3.1098 H   0  0  0  0  0  0  0  0  0  0  0  0
    2.5349   -0.5121   -4.9779 H   0  0  0  0  0  0  0  0  0  0  0  0
    3.7534   -3.5198   -2.3948 H   0  0  0  0  0  0  0  0  0  0  0  0
    3.9061   -1.7150    0.6632 H   0  0  0  0  0  0  0  0  0  0  0  0
    5.9212   -2.9367    1.6513 H   0  0  0  0  0  0  0  0  0  0  0  0
    2.3243   -3.0298   -4.4037 H   0  0  0  0  0  0  0  0  0  0  0  0
  1  2  1  0
  1 13  1  0
  2 12  1  0
  2  3  1  0
  2 14  1  6
  3  4  1  0
  4  5  1  0
  4 10  1  0
  4 15  1  1
  5  9  1  0
  5  6  1  0
  6  7  2  0
  6 16  1  0
  7  8  1  0
  7 17  1  0
  8  9  2  0
  8 21  1  0
  9 18  1  0
 10 12  1  0
 10 11  1  0
 10 19  1  1
 11 12  1  0
 12 20  1  1
M  CHG  1   8   1
M  END
>  <i_m_ct_stereo_status>  (90) 
1

>  <s_m_source_file>  (90) 
/var/tmp/pbs.5083858.sched01/tmp8cos4qip/358mxs1jog.sdf

>  <i_m_source_file_index>  (90) 
3

>  <i_lp_mmshare_version>  (90) 
48012

>  <i_f3d_flags>  (90) 
0

>  <s_epik_input>  (90) 
W0NASF0xMltDQEBIXShPMilbQ0BIXShbT0hdKU9bQ0BIXTFuM1tjSF1bY0hdbltjSF0z

>  <s_epik_cmdline>  (90) 
J2VwaWtfcHl0aG9uJywgJy1waHQnLCAnMi4wJywgJy1waCcsICc3LjAnLCAnLXRuJywgJzgnLCAnLW1hJywgJzIwMCcsICctaW1hZScsICc8aW5maWxlLm1hZT4nLCAnLW9tYWUnLCAnPG91dGZpbGUubWFlPic=

>  <r_lp_tautomer_probability>  (90) 
1

>  <r_epik_Ionization_Penalty>  (90) 
0.494107

>  <r_epik_Ionization_Penalty_Charging>  (90) 
0

>  <r_epik_Ionization_Penalty_Neutral>  (90) 
0.494107

>  <r_epik_State_Penalty>  (90) 
0.500065

>  <r_epik_Charging_Adjusted_Penalty>  (90) 
0.500065

>  <i_epik_Tot_Q>  (90) 
1

>  <i_epik_Tot_abs_Q>  (90) 
1

>  <s_epik_Chemistry_Notes>  (90) 
This compound contains an acetal/aminal-like group ( X-CH(R)-Y where X, Y are N, S, or O) that may be acid/base labile, releasing an aldehyde.

>  <s_lp_Force_Field>  (90) 
OPLS3e

>  <r_lp_Energy>  (90) 
17.5663

>  <b_lp_Chiralities_Consistent>  (90) 
1

>  <s_lp_Variant>  (90) 
26:0-2

>  <s_i_glide_gridfile>  (90) 
pfpi4k_grid

>  <i_i_glide_lignum>  (90) 
3

>  <i_i_glide_rotatable_bonds>  (90) 
2

>  <r_i_docking_score>  (90) 
-4.44894

>  <r_i_glide_ligand_efficiency>  (90) 
-0.370745

>  <r_i_glide_ligand_efficiency_sa>  (90) 
-0.848794

>  <r_i_glide_ligand_efficiency_ln>  (90) 
-1.27663

>  <r_i_glide_gscore>  (90) 
-4.44894

>  <r_i_glide_lipo>  (90) 
-0.362995

>  <r_i_glide_hbond>  (90) 
-0.16

>  <r_i_glide_metal>  (90) 
-0

>  <r_i_glide_rewards>  (90) 
-2.30584

>  <r_i_glide_evdw>  (90) 
-17.4895

>  <r_i_glide_ecoul>  (90) 
-7.94038

>  <r_i_glide_erotb>  (90) 
0.538104

>  <r_i_glide_esite>  (90) 
-0.0926783

>  <r_i_glide_emodel>  (90) 
-35.3783

>  <r_i_glide_energy>  (90) 
-25.4299

>  <r_i_glide_einternal>  (90) 
0.304904

>  <r_i_glide_intrahb_reward>  (90) 
-0

>  <i_i_glide_confnum>  (90) 
1

>  <i_i_glide_posenum>  (90) 
8

>  <r_i_glide_eff_state_penalty>  (90) 
0

>  <ligand_id>  (90) 
26

>  <original_smiles>  (90) 
OC1OC(n2ccnc2)C2OC12

>  <smiles>  (90) 
[H]OC1([H])OC([H])(n2c([H])c([H])[n+]([H])c2[H])C2([H])OC12[H]

$$$$
28:0:0
     RDKit          3D

 58 64  0  0  1  0  0  0  0  0999 V2000
    1.8944   -4.8234    5.7917 C   0  0  0  0  0  0  0  0  0  0  0  0
    2.2514   -4.3229    4.5083 O   0  0  0  0  0  0  0  0  0  0  0  0
    3.5357   -4.5889    4.0875 C   0  0  0  0  0  0  0  0  0  0  0  0
    3.8726   -5.8462    3.6178 C   0  0  0  0  0  0  0  0  0  0  0  0
    2.7851   -6.9324    3.6108 C   0  0  0  0  0  0  0  0  0  0  0  0
    5.1999   -6.3433    2.9348 C   0  0  1  0  0  0  0  0  0  0  0  0
    6.0509   -7.2342    3.9114 C   0  0  0  0  0  0  0  0  0  0  0  0
    6.8103   -6.4274    4.9777 C   0  0  0  0  0  0  0  0  0  0  0  0
    7.0292   -8.2437    3.2390 C   0  0  0  0  0  0  0  0  0  0  0  0
    4.8495   -7.1393    1.7840 O   0  0  0  0  0  0  0  0  0  0  0  0
    4.5288   -6.3682    0.6544 C   0  0  1  0  0  0  0  0  0  0  0  0
    3.1379   -6.2122    0.4644 O   0  0  0  0  0  0  0  0  0  0  0  0
    5.2624   -5.0390    0.8766 C   0  0  1  0  0  0  0  0  0  0  0  0
    6.3482   -4.9011   -0.0210 O   0  0  0  0  0  0  0  0  0  0  0  0
    7.3584   -4.2591    0.6281 C   0  0  0  0  0  0  0  0  0  0  0  0
    7.0141   -2.9749    0.8809 C   0  0  0  0  0  0  0  0  0  0  0  0
    7.3855   -2.0371   -0.0811 O   0  0  0  0  0  0  0  0  0  0  0  0
    6.0095   -1.7020   -0.3005 C   0  0  0  0  0  0  0  0  0  0  0  0
    5.5171   -2.5477    0.8708 C   0  0  2  0  0  0  0  0  0  0  0  0
    4.9233   -1.7981    2.0752 C   0  0  1  0  0  0  0  0  0  0  0  0
    3.4520   -2.1429    2.0886 C   0  0  1  0  0  0  0  0  0  0  0  0
    3.2072   -3.3552    1.2088 C   0  0  1  0  0  0  0  0  0  0  0  0
    2.2567   -3.0695    0.1962 O   0  0  0  0  0  0  0  0  0  0  0  0
    4.5558   -3.7066    0.5379 C   0  0  2  0  0  0  0  0  0  0  0  0
    4.1807   -2.1301    3.4032 C   0  0  2  0  0  0  0  0  0  0  0  0
    3.9092   -0.9962    4.3737 C   0  0  0  0  0  0  0  0  0  0  0  0
    4.4333   -3.4074    4.1988 C   0  0  0  0  0  0  0  0  0  0  0  0
    5.3979   -3.4025    4.9587 O   0  0  0  0  0  0  0  0  0  0  0  0
    7.4374   -5.2454    1.7589 C   0  0  0  0  0  0  0  0  0  0  0  0
    5.9745   -5.2220    2.2095 C   0  0  2  0  0  0  0  0  0  0  0  0
    0.8479   -4.5815    5.9720 H   0  0  0  0  0  0  0  0  0  0  0  0
    2.4919   -4.3612    6.5752 H   0  0  0  0  0  0  0  0  0  0  0  0
    1.9743   -5.9004    5.9046 H   0  0  0  0  0  0  0  0  0  0  0  0
    2.9004   -7.7039    2.8512 H   0  0  0  0  0  0  0  0  0  0  0  0
    1.8011   -6.4958    3.4265 H   0  0  0  0  0  0  0  0  0  0  0  0
    2.7625   -7.4705    4.5588 H   0  0  0  0  0  0  0  0  0  0  0  0
    5.3390   -7.8658    4.4441 H   0  0  0  0  0  0  0  0  0  0  0  0
    7.6254   -5.8410    4.5555 H   0  0  0  0  0  0  0  0  0  0  0  0
    7.2586   -7.0827    5.7225 H   0  0  0  0  0  0  0  0  0  0  0  0
    6.1563   -5.7481    5.5114 H   0  0  0  0  0  0  0  0  0  0  0  0
    7.8668   -7.7832    2.7198 H   0  0  0  0  0  0  0  0  0  0  0  0
    6.5138   -8.8990    2.5275 H   0  0  0  0  0  0  0  0  0  0  0  0
    7.4959   -8.8995    3.9859 H   0  0  0  0  0  0  0  0  0  0  0  0
    4.9026   -6.9082   -0.2140 H   0  0  0  0  0  0  0  0  0  0  0  0
    3.0053   -5.9927   -0.4501 H   0  0  0  0  0  0  0  0  0  0  0  0
    5.7974   -0.6346   -0.1982 H   0  0  0  0  0  0  0  0  0  0  0  0
    5.6861   -2.0738   -1.2771 H   0  0  0  0  0  0  0  0  0  0  0  0
    5.2281   -0.7554    2.0723 H   0  0  0  0  0  0  0  0  0  0  0  0
    2.7646   -1.3152    1.9312 H   0  0  0  0  0  0  0  0  0  0  0  0
    2.7532   -4.1602    1.7879 H   0  0  0  0  0  0  0  0  0  0  0  0
    2.2937   -2.1635   -0.0425 H   0  0  0  0  0  0  0  0  0  0  0  0
    4.3718   -3.7484   -0.5358 H   0  0  0  0  0  0  0  0  0  0  0  0
    3.7418   -0.0663    3.8289 H   0  0  0  0  0  0  0  0  0  0  0  0
    4.7513   -0.8310    5.0458 H   0  0  0  0  0  0  0  0  0  0  0  0
    3.0180   -1.2001    4.9622 H   0  0  0  0  0  0  0  0  0  0  0  0
    7.7305   -6.1534    1.2356 H   0  0  0  0  0  0  0  0  0  0  0  0
    8.1783   -5.0375    2.5309 H   0  0  0  0  0  0  0  0  0  0  0  0
    6.0444   -4.3350    2.7887 H   0  0  0  0  0  0  0  0  0  0  0  0
  1  2  1  0
  1 31  1  0
  1 32  1  0
  1 33  1  0
  2  3  1  0
  3 27  1  0
  3  4  2  3
  4  5  1  0
  4  6  1  0
  5 34  1  0
  5 35  1  0
  5 36  1  0
  6 30  1  0
  6  7  1  1
  6 10  1  0
  7  8  1  0
  7  9  1  0
  7 37  1  0
  8 38  1  0
  8 39  1  0
  8 40  1  0
  9 41  1  0
  9 42  1  0
  9 43  1  0
 10 11  1  0
 11 12  1  0
 11 13  1  0
 11 44  1  6
 12 45  1  0
 13 24  1  0
 13 30  1  0
 13 14  1  6
 14 15  1  0
 15 16  2  0
 15 29  1  0
 16 19  1  0
 16 17  1  0
 17 18  1  0
 19 18  1  6
 18 46  1  0
 18 47  1  0
 19 24  1  0
 19 20  1  0
 20 25  1  0
 20 21  1  0
 20 48  1  1
 21 22  1  0
 21 25  1  0
 21 49  1  1
 22 23  1  0
 22 24  1  0
 22 50  1  1
 23 51  1  0
 24 52  1  6
 25 26  1  1
 25 27  1  0
 26 53  1  0
 26 54  1  0
 26 55  1  0
 27 28  2  0
 29 30  1  0
 29 56  1  0
 29 57  1  0
 30 58  1  1
M  END
>  <i_m_ct_stereo_status>  (91) 
1

>  <s_m_source_file>  (91) 
/var/tmp/pbs.5083858.sched01/tmp8cos4qip/358mxs1jog.sdf

>  <i_m_source_file_index>  (91) 
5

>  <i_lp_mmshare_version>  (91) 
48012

>  <i_f3d_flags>  (91) 
1

>  <s_epik_input>  (91) 
W09IXVtDQEBIXTFbQ0BASF0yW0NASF0zW0NAXTIoW0NIM10pQyg9TylDKFxPW0NIM10pPUMoXFtDSDNdKVtDQEBdKFtDSF0oW0NIM10pW0NIM10pKE9bQ0BIXTRbT0hdKVtDQEhdNVtDSDJdQyhPNik9QyhPW0NIMl03KVtDQEBdMzdbQ0BIXTFbQ0BdNDU2

>  <s_epik_cmdline>  (91) 
J2VwaWtfcHl0aG9uJywgJy1waHQnLCAnMi4wJywgJy1waCcsICc3LjAnLCAnLXRuJywgJzgnLCAnLW1hJywgJzIwMCcsICctaW1hZScsICc8aW5maWxlLm1hZT4nLCAnLW9tYWUnLCAnPG91dGZpbGUubWFlPic=

>  <r_lp_tautomer_probability>  (91) 
1

>  <r_epik_Ionization_Penalty>  (91) 
1.57869e-05

>  <r_epik_Ionization_Penalty_Charging>  (91) 
0

>  <r_epik_Ionization_Penalty_Neutral>  (91) 
1.57869e-05

>  <r_epik_State_Penalty>  (91) 
-0

>  <r_epik_Charging_Adjusted_Penalty>  (91) 
0

>  <i_epik_Tot_Q>  (91) 
0

>  <i_epik_Tot_abs_Q>  (91) 
0

>  <s_epik_Chemistry_Notes>  (91) 
This compound contains an acetal/aminal-like group ( X-CH(R)-Y where X, Y are N, S, or O) that may be acid/base labile, releasing an aldehyde.

>  <s_lp_Force_Field>  (91) 
OPLS3e

>  <r_lp_Energy>  (91) 
143.986

>  <b_lp_Chiralities_Consistent>  (91) 
1

>  <s_lp_Variant>  (91) 
28:0-1

>  <s_i_glide_gridfile>  (91) 
pfpi4k_grid

>  <i_i_glide_lignum>  (91) 
5

>  <i_i_glide_rotatable_bonds>  (91) 
4

>  <r_i_docking_score>  (91) 
-2.97247

>  <r_i_glide_ligand_efficiency>  (91) 
-0.0990824

>  <r_i_glide_ligand_efficiency_sa>  (91) 
-0.307872

>  <r_i_glide_ligand_efficiency_ln>  (91) 
-0.675378

>  <r_i_glide_gscore>  (91) 
-2.97247

>  <r_i_glide_lipo>  (91) 
-0.588866

>  <r_i_glide_hbond>  (91) 
-0.0959691

>  <r_i_glide_metal>  (91) 
-0

>  <r_i_glide_rewards>  (91) 
-0.767191

>  <r_i_glide_evdw>  (91) 
-15.066

>  <r_i_glide_ecoul>  (91) 
-5.11432

>  <r_i_glide_erotb>  (91) 
0

>  <r_i_glide_esite>  (91) 
0

>  <r_i_glide_emodel>  (91) 
-21.1625

>  <r_i_glide_energy>  (91) 
-20.1803

>  <r_i_glide_einternal>  (91) 
5.51434

>  <r_i_glide_intrahb_reward>  (91) 
-0

>  <i_i_glide_confnum>  (91) 
1

>  <i_i_glide_posenum>  (91) 
7

>  <r_i_glide_eff_state_penalty>  (91) 
0

>  <ligand_id>  (91) 
28

>  <original_smiles>  (91) 
COC1=C(C)C2(C(C)C)OC(O)C34OC(=C5OCC56C5C(C(O)C63)C5(C)C1=O)CC24

>  <smiles>  (91) 
[H]OC1([H])OC2(C([H])(C([H])([H])[H])C([H])([H])[H])C(C([H])([H])[H])=C(OC([H])([H])[H])C(=O)C3(C([H])([H])[H])C4([H])C([H])(O[H])C5([H])C16OC(=C1OC([H])([H])C15C43[H])C([H])([H])C26[H]

$$$$
28:0:1
     RDKit          3D

 58 64  0  0  1  0  0  0  0  0999 V2000
    0.5116   -4.1943    5.2773 C   0  0  0  0  0  0  0  0  0  0  0  0
    1.0242   -4.5383    3.9944 O   0  0  0  0  0  0  0  0  0  0  0  0
    2.3581   -4.8304    3.9617 C   0  0  0  0  0  0  0  0  0  0  0  0
    2.8013   -6.1120    4.2206 C   0  0  0  0  0  0  0  0  0  0  0  0
    1.7310   -7.1459    4.6186 C   0  0  0  0  0  0  0  0  0  0  0  0
    4.2316   -6.7377    4.0766 C   0  0  1  0  0  0  0  0  0  0  0  0
    4.9327   -6.9351    5.4675 C   0  0  0  0  0  0  0  0  0  0  0  0
    5.4591   -5.6305    6.0902 C   0  0  0  0  0  0  0  0  0  0  0  0
    6.0334   -8.0203    5.5273 C   0  0  0  0  0  0  0  0  0  0  0  0
    4.1357   -8.0311    3.4501 O   0  0  0  0  0  0  0  0  0  0  0  0
    3.9818   -7.9734    2.0520 C   0  0  1  0  0  0  0  0  0  0  0  0
    2.6512   -8.0928    1.6440 O   0  0  0  0  0  0  0  0  0  0  0  0
    4.6248   -6.6250    1.6571 C   0  0  1  0  0  0  0  0  0  0  0  0
    5.8618   -6.8330    0.9801 O   0  0  0  0  0  0  0  0  0  0  0  0
    6.7064   -5.8273    1.3746 C   0  0  0  0  0  0  0  0  0  0  0  0
    6.2962   -4.6181    0.9249 C   0  0  0  0  0  0  0  0  0  0  0  0
    6.7979   -4.1753   -0.2941 O   0  0  0  0  0  0  0  0  0  0  0  0
    5.4821   -4.1973   -0.8797 C   0  0  0  0  0  0  0  0  0  0  0  0
    4.8146   -4.4254    0.4758 C   0  0  2  0  0  0  0  0  0  0  0  0
    4.0093   -3.2262    1.0346 C   0  0  1  0  0  0  0  0  0  0  0  0
    2.5600   -3.6795    0.9932 C   0  0  1  0  0  0  0  0  0  0  0  0
    2.4879   -5.1968    0.8198 C   0  0  1  0  0  0  0  0  0  0  0  0
    1.6720   -5.4588   -0.3127 O   0  0  0  0  0  0  0  0  0  0  0  0
    3.9376   -5.6942    0.6098 C   0  0  2  0  0  0  0  0  0  0  0  0
    3.0496   -2.9769    2.2332 C   0  0  2  0  0  0  0  0  0  0  0  0
    2.5830   -1.5305    2.4423 C   0  0  0  0  0  0  0  0  0  0  0  0
    3.2040   -3.6515    3.5783 C   0  0  0  0  0  0  0  0  0  0  0  0
    4.0329   -3.1949    4.3635 O   0  0  0  0  0  0  0  0  0  0  0  0
    6.6120   -6.1260    2.8467 C   0  0  0  0  0  0  0  0  0  0  0  0
    5.0934   -6.0580    2.9943 C   0  0  2  0  0  0  0  0  0  0  0  0
   -0.5620   -4.0267    5.1994 H   0  0  0  0  0  0  0  0  0  0  0  0
    0.9621   -3.2751    5.6449 H   0  0  0  0  0  0  0  0  0  0  0  0
    0.6638   -4.9787    6.0158 H   0  0  0  0  0  0  0  0  0  0  0  0
    2.0066   -8.1740    4.3969 H   0  0  0  0  0  0  0  0  0  0  0  0
    0.7939   -6.9701    4.0898 H   0  0  0  0  0  0  0  0  0  0  0  0
    1.5347   -7.1000    5.6889 H   0  0  0  0  0  0  0  0  0  0  0  0
    4.1517   -7.2991    6.1449 H   0  0  0  0  0  0  0  0  0  0  0  0
    6.3198   -5.2406    5.5485 H   0  0  0  0  0  0  0  0  0  0  0  0
    5.7845   -5.7884    7.1171 H   0  0  0  0  0  0  0  0  0  0  0  0
    4.7019   -4.8557    6.1138 H   0  0  0  0  0  0  0  0  0  0  0  0
    6.9190   -7.7656    4.9391 H   0  0  0  0  0  0  0  0  0  0  0  0
    5.6764   -8.9867    5.1769 H   0  0  0  0  0  0  0  0  0  0  0  0
    6.3818   -8.1773    6.5497 H   0  0  0  0  0  0  0  0  0  0  0  0
    4.5259   -8.8186    1.6218 H   0  0  0  0  0  0  0  0  0  0  0  0
    2.3761   -9.0054    1.8085 H   0  0  0  0  0  0  0  0  0  0  0  0
    5.2340   -3.2594   -1.3579 H   0  0  0  0  0  0  0  0  0  0  0  0
    5.3673   -5.0413   -1.5605 H   0  0  0  0  0  0  0  0  0  0  0  0
    4.2898   -2.3070    0.5467 H   0  0  0  0  0  0  0  0  0  0  0  0
    1.9135   -3.1091    0.3447 H   0  0  0  0  0  0  0  0  0  0  0  0
    1.9728   -5.6588    1.6528 H   0  0  0  0  0  0  0  0  0  0  0  0
    2.2172   -5.4166   -1.0988 H   0  0  0  0  0  0  0  0  0  0  0  0
    3.9516   -6.2696   -0.3225 H   0  0  0  0  0  0  0  0  0  0  0  0
    2.4912   -1.0162    1.4961 H   0  0  0  0  0  0  0  0  0  0  0  0
    3.2897   -0.9731    3.0562 H   0  0  0  0  0  0  0  0  0  0  0  0
    1.6105   -1.5165    2.9274 H   0  0  0  0  0  0  0  0  0  0  0  0
    7.0312   -7.1226    2.9558 H   0  0  0  0  0  0  0  0  0  0  0  0
    7.1698   -5.4203    3.4635 H   0  0  0  0  0  0  0  0  0  0  0  0
    5.0360   -5.0027    3.0556 H   0  0  0  0  0  0  0  0  0  0  0  0
  1  2  1  0
  1 31  1  0
  1 32  1  0
  1 33  1  0
  2  3  1  0
  3 27  1  0
  3  4  2  3
  4  5  1  0
  4  6  1  0
  5 34  1  0
  5 35  1  0
  5 36  1  0
  6 30  1  0
  6  7  1  1
  6 10  1  0
  7  8  1  0
  7  9  1  0
  7 37  1  0
  8 38  1  0
  8 39  1  0
  8 40  1  0
  9 41  1  0
  9 42  1  0
  9 43  1  0
 10 11  1  0
 11 12  1  0
 11 13  1  0
 11 44  1  6
 12 45  1  0
 13 24  1  0
 13 30  1  0
 13 14  1  6
 14 15  1  0
 15 16  2  0
 15 29  1  0
 16 19  1  0
 16 17  1  0
 17 18  1  0
 19 18  1  6
 18 46  1  0
 18 47  1  0
 19 24  1  0
 19 20  1  0
 20 25  1  0
 20 21  1  0
 20 48  1  6
 21 22  1  0
 21 25  1  0
 21 49  1  6
 22 23  1  0
 22 24  1  0
 22 50  1  1
 23 51  1  0
 24 52  1  6
 25 26  1  1
 25 27  1  0
 26 53  1  0
 26 54  1  0
 26 55  1  0
 27 28  2  0
 29 30  1  0
 29 56  1  0
 29 57  1  0
 30 58  1  6
M  END
>  <i_m_ct_stereo_status>  (92) 
1

>  <s_m_source_file>  (92) 
/var/tmp/pbs.5083858.sched01/tmp8cos4qip/358mxs1jog.sdf

>  <i_m_source_file_index>  (92) 
5

>  <i_lp_mmshare_version>  (92) 
48012

>  <i_f3d_flags>  (92) 
1

>  <s_epik_input>  (92) 
W09IXVtDQEBIXTFbQ0BASF0yW0NASF0zW0NAXTIoW0NIM10pQyg9TylDKFxPW0NIM10pPUMoXFtDSDNdKVtDQEBdKFtDSF0oW0NIM10pW0NIM10pKE9bQ0BIXTRbT0hdKVtDQEhdNVtDSDJdQyhPNik9QyhPW0NIMl03KVtDQEBdMzdbQ0BIXTFbQ0BdNDU2

>  <s_epik_cmdline>  (92) 
J2VwaWtfcHl0aG9uJywgJy1waHQnLCAnMi4wJywgJy1waCcsICc3LjAnLCAnLXRuJywgJzgnLCAnLW1hJywgJzIwMCcsICctaW1hZScsICc8aW5maWxlLm1hZT4nLCAnLW9tYWUnLCAnPG91dGZpbGUubWFlPic=

>  <r_lp_tautomer_probability>  (92) 
1

>  <r_epik_Ionization_Penalty>  (92) 
1.57869e-05

>  <r_epik_Ionization_Penalty_Charging>  (92) 
0

>  <r_epik_Ionization_Penalty_Neutral>  (92) 
1.57869e-05

>  <r_epik_State_Penalty>  (92) 
-0

>  <r_epik_Charging_Adjusted_Penalty>  (92) 
0

>  <i_epik_Tot_Q>  (92) 
0

>  <i_epik_Tot_abs_Q>  (92) 
0

>  <s_epik_Chemistry_Notes>  (92) 
This compound contains an acetal/aminal-like group ( X-CH(R)-Y where X, Y are N, S, or O) that may be acid/base labile, releasing an aldehyde.

>  <s_lp_Force_Field>  (92) 
OPLS3e

>  <r_lp_Energy>  (92) 
143.986

>  <b_lp_Chiralities_Consistent>  (92) 
1

>  <s_lp_Variant>  (92) 
28:0-1

>  <s_i_glide_gridfile>  (92) 
pfpi4k_grid

>  <i_i_glide_lignum>  (92) 
5

>  <i_i_glide_rotatable_bonds>  (92) 
4

>  <r_i_docking_score>  (92) 
-2.9132

>  <r_i_glide_ligand_efficiency>  (92) 
-0.0971066

>  <r_i_glide_ligand_efficiency_sa>  (92) 
-0.301733

>  <r_i_glide_ligand_efficiency_ln>  (92) 
-0.661911

>  <r_i_glide_gscore>  (92) 
-2.9132

>  <r_i_glide_lipo>  (92) 
-0.387544

>  <r_i_glide_hbond>  (92) 
0

>  <r_i_glide_metal>  (92) 
-0

>  <r_i_glide_rewards>  (92) 
-0.569562

>  <r_i_glide_evdw>  (92) 
-15.6764

>  <r_i_glide_ecoul>  (92) 
-7.79709

>  <r_i_glide_erotb>  (92) 
0

>  <r_i_glide_esite>  (92) 
-0.00271169

>  <r_i_glide_emodel>  (92) 
-25.3872

>  <r_i_glide_energy>  (92) 
-23.4735

>  <r_i_glide_einternal>  (92) 
4.17712

>  <r_i_glide_intrahb_reward>  (92) 
-0

>  <i_i_glide_confnum>  (92) 
1

>  <i_i_glide_posenum>  (92) 
5

>  <r_i_glide_eff_state_penalty>  (92) 
0

>  <ligand_id>  (92) 
28

>  <original_smiles>  (92) 
COC1=C(C)C2(C(C)C)OC(O)C34OC(=C5OCC56C5C(C(O)C63)C5(C)C1=O)CC24

>  <smiles>  (92) 
[H]OC1([H])OC2(C([H])(C([H])([H])[H])C([H])([H])[H])C(C([H])([H])[H])=C(OC([H])([H])[H])C(=O)C3(C([H])([H])[H])C4([H])C([H])(O[H])C5([H])C16OC(=C1OC([H])([H])C15C43[H])C([H])([H])C26[H]

$$$$
28:0:2
     RDKit          3D

 58 64  0  0  1  0  0  0  0  0999 V2000
   -0.1904   -6.3113    5.6162 C   0  0  0  0  0  0  0  0  0  0  0  0
    0.5037   -6.1147    4.3900 O   0  0  0  0  0  0  0  0  0  0  0  0
    1.8162   -6.5290    4.3737 C   0  0  0  0  0  0  0  0  0  0  0  0
    2.1319   -7.8661    4.2902 C   0  0  0  0  0  0  0  0  0  0  0  0
    0.9893   -8.8869    4.2504 C   0  0  0  0  0  0  0  0  0  0  0  0
    3.5428   -8.5393    4.1035 C   0  0  1  0  0  0  0  0  0  0  0  0
    4.1160   -9.1731    5.4144 C   0  0  0  0  0  0  0  0  0  0  0  0
    3.2466  -10.2881    6.0370 C   0  0  0  0  0  0  0  0  0  0  0  0
    4.4625   -8.1300    6.4889 C   0  0  0  0  0  0  0  0  0  0  0  0
    3.4767   -9.6030    3.1370 O   0  0  0  0  0  0  0  0  0  0  0  0
    3.4856   -9.1426    1.8078 C   0  0  1  0  0  0  0  0  0  0  0  0
    2.2001   -9.0059    1.2765 O   0  0  0  0  0  0  0  0  0  0  0  0
    4.2294   -7.8090    1.8647 C   0  0  1  0  0  0  0  0  0  0  0  0
    5.5231   -7.9416    1.2854 O   0  0  0  0  0  0  0  0  0  0  0  0
    6.3626   -7.1659    2.0350 C   0  0  0  0  0  0  0  0  0  0  0  0
    6.0901   -5.8390    1.8805 C   0  0  0  0  0  0  0  0  0  0  0  0
    6.7497   -5.1617    0.8495 O   0  0  0  0  0  0  0  0  0  0  0  0
    5.4981   -4.8591    0.2140 C   0  0  0  0  0  0  0  0  0  0  0  0
    4.6728   -5.3902    1.3868 C   0  0  2  0  0  0  0  0  0  0  0  0
    3.8797   -4.3351    2.1949 C   0  0  1  0  0  0  0  0  0  0  0  0
    2.4209   -4.6230    1.9193 C   0  0  1  0  0  0  0  0  0  0  0  0
    2.2721   -6.0049    1.3039 C   0  0  1  0  0  0  0  0  0  0  0  0
    1.5734   -5.8485    0.0771 O   0  0  0  0  0  0  0  0  0  0  0  0
    3.7090   -6.5607    1.0797 C   0  0  2  0  0  0  0  0  0  0  0  0
    2.8210   -4.3330    3.3336 C   0  0  2  0  0  0  0  0  0  0  0  0
    2.4189   -2.9742    3.9141 C   0  0  0  0  0  0  0  0  0  0  0  0
    2.7702   -5.3827    4.4338 C   0  0  0  0  0  0  0  0  0  0  0  0
    3.5436   -5.2425    5.3789 O   0  0  0  0  0  0  0  0  0  0  0  0
    6.0669   -7.8335    3.3576 C   0  0  0  0  0  0  0  0  0  0  0  0
    4.5548   -7.6600    3.3497 C   0  0  2  0  0  0  0  0  0  0  0  0
   -1.2287   -6.0130    5.4731 H   0  0  0  0  0  0  0  0  0  0  0  0
    0.2332   -5.7036    6.4143 H   0  0  0  0  0  0  0  0  0  0  0  0
   -0.2183   -7.3398    5.9669 H   0  0  0  0  0  0  0  0  0  0  0  0
    1.2360   -9.8217    3.7531 H   0  0  0  0  0  0  0  0  0  0  0  0
    0.1212   -8.4857    3.7291 H   0  0  0  0  0  0  0  0  0  0  0  0
    0.6807   -9.1725    5.2543 H   0  0  0  0  0  0  0  0  0  0  0  0
    5.0524   -9.6698    5.1509 H   0  0  0  0  0  0  0  0  0  0  0  0
    2.3413   -9.8982    6.5006 H   0  0  0  0  0  0  0  0  0  0  0  0
    3.7847  -10.8169    6.8266 H   0  0  0  0  0  0  0  0  0  0  0  0
    2.9530  -11.0370    5.2989 H   0  0  0  0  0  0  0  0  0  0  0  0
    3.5731   -7.6044    6.8352 H   0  0  0  0  0  0  0  0  0  0  0  0
    5.1668   -7.3882    6.1166 H   0  0  0  0  0  0  0  0  0  0  0  0
    4.9220   -8.6017    7.3582 H   0  0  0  0  0  0  0  0  0  0  0  0
    4.0091   -9.8606    1.1765 H   0  0  0  0  0  0  0  0  0  0  0  0
    1.8494   -9.8764    1.1567 H   0  0  0  0  0  0  0  0  0  0  0  0
    5.3604   -3.8011    0.0071 H   0  0  0  0  0  0  0  0  0  0  0  0
    5.3919   -5.4379   -0.7044 H   0  0  0  0  0  0  0  0  0  0  0  0
    4.2602   -3.3329    2.0160 H   0  0  0  0  0  0  0  0  0  0  0  0
    1.8735   -3.8302    1.4157 H   0  0  0  0  0  0  0  0  0  0  0  0
    1.6346   -6.6348    1.9124 H   0  0  0  0  0  0  0  0  0  0  0  0
    2.1801   -5.5468   -0.5845 H   0  0  0  0  0  0  0  0  0  0  0  0
    3.7960   -6.8373    0.0269 H   0  0  0  0  0  0  0  0  0  0  0  0
    2.4604   -2.2002    3.1477 H   0  0  0  0  0  0  0  0  0  0  0  0
    3.0880   -2.6677    4.7189 H   0  0  0  0  0  0  0  0  0  0  0  0
    1.3988   -3.0052    4.2922 H   0  0  0  0  0  0  0  0  0  0  0  0
    6.3650   -8.8803    3.2781 H   0  0  0  0  0  0  0  0  0  0  0  0
    6.5842   -7.3602    4.1958 H   0  0  0  0  0  0  0  0  0  0  0  0
    4.5713   -6.6617    3.7048 H   0  0  0  0  0  0  0  0  0  0  0  0
  1  2  1  0
  1 31  1  0
  1 32  1  0
  1 33  1  0
  2  3  1  0
  3 27  1  0
  3  4  2  3
  4  5  1  0
  4  6  1  0
  5 34  1  0
  5 35  1  0
  5 36  1  0
  6 30  1  0
  6  7  1  1
  6 10  1  0
  7  8  1  0
  7  9  1  0
  7 37  1  0
  8 38  1  0
  8 39  1  0
  8 40  1  0
  9 41  1  0
  9 42  1  0
  9 43  1  0
 10 11  1  0
 11 12  1  0
 11 13  1  0
 11 44  1  6
 12 45  1  0
 13 24  1  0
 13 30  1  0
 13 14  1  6
 14 15  1  0
 15 16  2  0
 15 29  1  0
 16 19  1  0
 16 17  1  0
 17 18  1  0
 19 18  1  6
 18 46  1  0
 18 47  1  0
 19 24  1  0
 19 20  1  0
 20 25  1  0
 20 21  1  0
 20 48  1  6
 21 22  1  0
 21 25  1  0
 21 49  1  6
 22 23  1  0
 22 24  1  0
 22 50  1  1
 23 51  1  0
 24 52  1  6
 25 26  1  1
 25 27  1  0
 26 53  1  0
 26 54  1  0
 26 55  1  0
 27 28  2  0
 29 30  1  0
 29 56  1  0
 29 57  1  0
 30 58  1  1
M  END
>  <i_m_ct_stereo_status>  (93) 
1

>  <s_m_source_file>  (93) 
/var/tmp/pbs.5083858.sched01/tmp8cos4qip/358mxs1jog.sdf

>  <i_m_source_file_index>  (93) 
5

>  <i_lp_mmshare_version>  (93) 
48012

>  <i_f3d_flags>  (93) 
1

>  <s_epik_input>  (93) 
W09IXVtDQEBIXTFbQ0BASF0yW0NASF0zW0NAXTIoW0NIM10pQyg9TylDKFxPW0NIM10pPUMoXFtDSDNdKVtDQEBdKFtDSF0oW0NIM10pW0NIM10pKE9bQ0BIXTRbT0hdKVtDQEhdNVtDSDJdQyhPNik9QyhPW0NIMl03KVtDQEBdMzdbQ0BIXTFbQ0BdNDU2

>  <s_epik_cmdline>  (93) 
J2VwaWtfcHl0aG9uJywgJy1waHQnLCAnMi4wJywgJy1waCcsICc3LjAnLCAnLXRuJywgJzgnLCAnLW1hJywgJzIwMCcsICctaW1hZScsICc8aW5maWxlLm1hZT4nLCAnLW9tYWUnLCAnPG91dGZpbGUubWFlPic=

>  <r_lp_tautomer_probability>  (93) 
1

>  <r_epik_Ionization_Penalty>  (93) 
1.57869e-05

>  <r_epik_Ionization_Penalty_Charging>  (93) 
0

>  <r_epik_Ionization_Penalty_Neutral>  (93) 
1.57869e-05

>  <r_epik_State_Penalty>  (93) 
-0

>  <r_epik_Charging_Adjusted_Penalty>  (93) 
0

>  <i_epik_Tot_Q>  (93) 
0

>  <i_epik_Tot_abs_Q>  (93) 
0

>  <s_epik_Chemistry_Notes>  (93) 
This compound contains an acetal/aminal-like group ( X-CH(R)-Y where X, Y are N, S, or O) that may be acid/base labile, releasing an aldehyde.

>  <s_lp_Force_Field>  (93) 
OPLS3e

>  <r_lp_Energy>  (93) 
143.986

>  <b_lp_Chiralities_Consistent>  (93) 
1

>  <s_lp_Variant>  (93) 
28:0-1

>  <s_i_glide_gridfile>  (93) 
pfpi4k_grid

>  <i_i_glide_lignum>  (93) 
5

>  <i_i_glide_rotatable_bonds>  (93) 
4

>  <r_i_docking_score>  (93) 
-2.81148

>  <r_i_glide_ligand_efficiency>  (93) 
-0.093716

>  <r_i_glide_ligand_efficiency_sa>  (93) 
-0.291197

>  <r_i_glide_ligand_efficiency_ln>  (93) 
-0.638799

>  <r_i_glide_gscore>  (93) 
-2.81148

>  <r_i_glide_lipo>  (93) 
-0.30661

>  <r_i_glide_hbond>  (93) 
0

>  <r_i_glide_metal>  (93) 
-0

>  <r_i_glide_rewards>  (93) 
-0.569562

>  <r_i_glide_evdw>  (93) 
-18.1775

>  <r_i_glide_ecoul>  (93) 
-6.56381

>  <r_i_glide_erotb>  (93) 
0

>  <r_i_glide_esite>  (93) 
-0.0418582

>  <r_i_glide_emodel>  (93) 
-28.2443

>  <r_i_glide_energy>  (93) 
-24.7413

>  <r_i_glide_einternal>  (93) 
0.909414

>  <r_i_glide_intrahb_reward>  (93) 
-0

>  <i_i_glide_confnum>  (93) 
2

>  <i_i_glide_posenum>  (93) 
30

>  <r_i_glide_eff_state_penalty>  (93) 
0

>  <ligand_id>  (93) 
28

>  <original_smiles>  (93) 
COC1=C(C)C2(C(C)C)OC(O)C34OC(=C5OCC56C5C(C(O)C63)C5(C)C1=O)CC24

>  <smiles>  (93) 
[H]OC1([H])OC2(C([H])(C([H])([H])[H])C([H])([H])[H])C(C([H])([H])[H])=C(OC([H])([H])[H])C(=O)C3(C([H])([H])[H])C4([H])C([H])(O[H])C5([H])C16OC(=C1OC([H])([H])C15C43[H])C([H])([H])C26[H]

$$$$
29:0:0
     RDKit          3D

 49 53  0  0  1  0  0  0  0  0999 V2000
    3.8703   -0.8058   -3.1780 C   0  0  0  0  0  0  0  0  0  0  0  0
    4.0332   -1.7657   -1.9890 C   0  0  1  0  0  0  0  0  0  0  0  0
    2.9669   -2.8905   -1.9756 C   0  0  0  0  0  0  0  0  0  0  0  0
    3.1058   -3.8378   -0.7573 C   0  0  1  0  0  0  0  0  0  0  0  0
    4.5741   -4.1857   -0.4854 C   0  0  0  0  0  0  0  0  0  0  0  0
    5.3717   -2.8664   -0.4116 C   0  0  1  0  0  0  0  0  0  0  0  0
    6.7814   -3.1435    0.1468 C   0  0  0  0  0  0  0  0  0  0  0  0
    5.4421   -2.3274   -1.8403 C   0  0  0  0  0  0  0  0  0  0  0  0
    4.5126   -1.7511    0.3009 C   0  0  2  0  0  0  0  0  0  0  0  0
    5.2847   -0.6588    1.0752 C   0  0  0  0  0  0  0  0  0  0  0  0
    5.6769   -1.0547    2.5121 C   0  0  1  0  0  0  0  0  0  0  0  0
    5.9870    0.0838    3.2838 O   0  0  0  0  0  0  0  0  0  0  0  0
    4.6766   -1.9065    3.2815 C   0  0  1  0  0  0  0  0  0  0  0  0
    3.2767   -1.4842    3.6641 C   0  0  0  0  0  0  0  0  0  0  0  0
    2.7886   -1.8532    5.0590 C   0  0  0  0  0  0  0  0  0  0  0  0
    2.7130   -0.1052    3.3342 C   0  0  0  0  0  0  0  0  0  0  0  0
    3.4997   -2.5642    2.5827 C   0  0  2  0  0  0  0  0  0  0  0  0
    3.1307   -4.0036    2.9404 C   0  0  0  0  0  0  0  0  0  0  0  0
    3.2568   -2.2443    1.0910 C   0  0  2  0  0  0  0  0  0  0  0  0
    2.5526   -3.3003    0.4341 O   0  0  0  0  0  0  0  0  0  0  0  0
    3.9470   -1.0247   -0.7914 O   0  0  0  0  0  0  0  0  0  0  0  0
    3.9833   -1.3242   -4.1304 H   0  0  0  0  0  0  0  0  0  0  0  0
    4.6096   -0.0065   -3.1368 H   0  0  0  0  0  0  0  0  0  0  0  0
    2.8857   -0.3375   -3.1657 H   0  0  0  0  0  0  0  0  0  0  0  0
    1.9620   -2.4715   -2.0081 H   0  0  0  0  0  0  0  0  0  0  0  0
    3.0776   -3.4773   -2.8879 H   0  0  0  0  0  0  0  0  0  0  0  0
    2.5118   -4.7263   -0.9444 H   0  0  0  0  0  0  0  0  0  0  0  0
    4.6657   -4.7503    0.4391 H   0  0  0  0  0  0  0  0  0  0  0  0
    4.9600   -4.8391   -1.2685 H   0  0  0  0  0  0  0  0  0  0  0  0
    7.4147   -2.2567    0.1291 H   0  0  0  0  0  0  0  0  0  0  0  0
    7.2857   -3.9052   -0.4500 H   0  0  0  0  0  0  0  0  0  0  0  0
    6.7364   -3.5150    1.1706 H   0  0  0  0  0  0  0  0  0  0  0  0
    5.6808   -3.0838   -2.5915 H   0  0  0  0  0  0  0  0  0  0  0  0
    6.1805   -1.5291   -1.9212 H   0  0  0  0  0  0  0  0  0  0  0  0
    6.1742   -0.3623    0.5213 H   0  0  0  0  0  0  0  0  0  0  0  0
    4.6762    0.2430    1.0895 H   0  0  0  0  0  0  0  0  0  0  0  0
    6.5946   -1.6345    2.4602 H   0  0  0  0  0  0  0  0  0  0  0  0
    6.7948    0.4627    2.9564 H   0  0  0  0  0  0  0  0  0  0  0  0
    5.1773   -2.5202    4.0299 H   0  0  0  0  0  0  0  0  0  0  0  0
    1.7157   -2.0583    5.0451 H   0  0  0  0  0  0  0  0  0  0  0  0
    2.9804   -1.0384    5.7599 H   0  0  0  0  0  0  0  0  0  0  0  0
    3.3077   -2.7303    5.4471 H   0  0  0  0  0  0  0  0  0  0  0  0
    1.6210   -0.1284    3.3552 H   0  0  0  0  0  0  0  0  0  0  0  0
    3.0153    0.2529    2.3570 H   0  0  0  0  0  0  0  0  0  0  0  0
    3.0570    0.6252    4.0689 H   0  0  0  0  0  0  0  0  0  0  0  0
    2.0503   -4.1376    2.8862 H   0  0  0  0  0  0  0  0  0  0  0  0
    3.4594   -4.2617    3.9434 H   0  0  0  0  0  0  0  0  0  0  0  0
    3.6028   -4.7184    2.2745 H   0  0  0  0  0  0  0  0  0  0  0  0
    2.5262   -1.4363    1.0690 H   0  0  0  0  0  0  0  0  0  0  0  0
  2  1  1  6
  1 22  1  0
  1 23  1  0
  1 24  1  0
  2  8  1  0
  2 21  1  0
  2  3  1  0
  3  4  1  0
  3 25  1  0
  3 26  1  0
  4 20  1  0
  4  5  1  0
  4 27  1  6
  5  6  1  0
  5 28  1  0
  5 29  1  0
  6  7  1  1
  6  8  1  0
  6  9  1  0
  7 30  1  0
  7 31  1  0
  7 32  1  0
  8 33  1  0
  8 34  1  0
  9 19  1  0
  9 10  1  0
  9 21  1  6
 10 11  1  0
 10 35  1  0
 10 36  1  0
 11 12  1  0
 11 13  1  0
 11 37  1  6
 12 38  1  0
 13 17  1  0
 13 14  1  0
 13 39  1  1
 14 15  1  0
 14 16  1  0
 14 17  1  0
 15 40  1  0
 15 41  1  0
 15 42  1  0
 16 43  1  0
 16 44  1  0
 16 45  1  0
 17 18  1  1
 17 19  1  0
 18 46  1  0
 18 47  1  0
 18 48  1  0
 19 20  1  0
 19 49  1  1
M  END
>  <i_m_ct_stereo_status>  (94) 
1

>  <s_m_source_file>  (94) 
/var/tmp/pbs.5083858.sched01/tmpbb0qt8oz/40b9btvjb8.sdf

>  <i_m_source_file_index>  (94) 
2

>  <i_lp_mmshare_version>  (94) 
48012

>  <i_f3d_flags>  (94) 
0

>  <s_epik_input>  (94) 
W0NIM11bQ0BdKE8xKShbQ0gyXTIpW0NIMl1bQ0BASF0oW0NIMl1bQ0BAXTIoW0NAXTEzNClbQ0gzXSlPW0NASF00W0NAQF01KFtDSDNdKVtDQEBIXShbQ0BASF0oW0NIMl0zKVtPSF0pQzUoW0NIM10pW0NIM10=

>  <s_epik_cmdline>  (94) 
J2VwaWtfcHl0aG9uJywgJy1waHQnLCAnMi4wJywgJy1waCcsICc3LjAnLCAnLXRuJywgJzgnLCAnLW1hJywgJzIwMCcsICctaW1hZScsICc8aW5maWxlLm1hZT4nLCAnLW9tYWUnLCAnPG91dGZpbGUubWFlPic=

>  <r_lp_tautomer_probability>  (94) 
1

>  <r_epik_Ionization_Penalty>  (94) 
2.43078e-07

>  <r_epik_Ionization_Penalty_Charging>  (94) 
0

>  <r_epik_Ionization_Penalty_Neutral>  (94) 
2.43078e-07

>  <r_epik_State_Penalty>  (94) 
-0

>  <r_epik_Charging_Adjusted_Penalty>  (94) 
0

>  <i_epik_Tot_Q>  (94) 
0

>  <i_epik_Tot_abs_Q>  (94) 
0

>  <s_lp_Force_Field>  (94) 
OPLS3e

>  <r_lp_Energy>  (94) 
55.8638

>  <b_lp_Chiralities_Consistent>  (94) 
1

>  <s_lp_Variant>  (94) 
29:0-1

>  <s_i_glide_gridfile>  (94) 
pfpi4k_grid

>  <i_i_glide_lignum>  (94) 
2

>  <i_i_glide_rotatable_bonds>  (94) 
1

>  <r_i_docking_score>  (94) 
-3.8405

>  <r_i_glide_ligand_efficiency>  (94) 
-0.182881

>  <r_i_glide_ligand_efficiency_sa>  (94) 
-0.504554

>  <r_i_glide_ligand_efficiency_ln>  (94) 
-0.949555

>  <r_i_glide_gscore>  (94) 
-3.8405

>  <r_i_glide_lipo>  (94) 
-0.542046

>  <r_i_glide_hbond>  (94) 
-0.44263

>  <r_i_glide_metal>  (94) 
-0

>  <r_i_glide_rewards>  (94) 
-1.41537

>  <r_i_glide_evdw>  (94) 
-23.3824

>  <r_i_glide_ecoul>  (94) 
-1.8089

>  <r_i_glide_erotb>  (94) 
0

>  <r_i_glide_esite>  (94) 
0

>  <r_i_glide_emodel>  (94) 
-30.6596

>  <r_i_glide_energy>  (94) 
-25.1913

>  <r_i_glide_einternal>  (94) 
0.468797

>  <r_i_glide_intrahb_reward>  (94) 
-0

>  <i_i_glide_confnum>  (94) 
2

>  <i_i_glide_posenum>  (94) 
16

>  <r_i_glide_eff_state_penalty>  (94) 
0

>  <ligand_id>  (94) 
29

>  <original_smiles>  (94) 
CC12CC3CC(C)(C1)C1(CC(O)C4C(C)(C)C4(C)C1O3)O2

>  <smiles>  (94) 
[H]OC1([H])C([H])([H])C23OC4(C([H])([H])[H])C([H])([H])C([H])(OC2([H])C2(C([H])([H])[H])C1([H])C2(C([H])([H])[H])C([H])([H])[H])C([H])([H])C3(C([H])([H])[H])C4([H])[H]

$$$$
29:0:1
     RDKit          3D

 49 53  0  0  1  0  0  0  0  0999 V2000
    1.2056   -5.5651    3.2992 C   0  0  0  0  0  0  0  0  0  0  0  0
    2.3230   -4.5719    2.9363 C   0  0  1  0  0  0  0  0  0  0  0  0
    2.1214   -3.1821    3.5971 C   0  0  0  0  0  0  0  0  0  0  0  0
    3.2521   -2.1756    3.2501 C   0  0  1  0  0  0  0  0  0  0  0  0
    4.6261   -2.8516    3.2683 C   0  0  0  0  0  0  0  0  0  0  0  0
    4.5586   -4.1251    2.4001 C   0  0  1  0  0  0  0  0  0  0  0  0
    5.9724   -4.6712    2.1539 C   0  0  0  0  0  0  0  0  0  0  0  0
    3.7173   -5.1251    3.1985 C   0  0  0  0  0  0  0  0  0  0  0  0
    3.6381   -3.8852    1.1490 C   0  0  2  0  0  0  0  0  0  0  0  0
    3.9793   -4.6814   -0.1173 C   0  0  0  0  0  0  0  0  0  0  0  0
    5.1073   -4.0686   -0.9793 C   0  0  1  0  0  0  0  0  0  0  0  0
    5.0202   -4.4207   -2.3258 O   0  0  0  0  0  0  0  0  0  0  0  0
    5.1516   -2.5667   -1.0537 C   0  0  1  0  0  0  0  0  0  0  0  0
    4.0582   -1.7486   -1.6883 C   0  0  0  0  0  0  0  0  0  0  0  0
    4.4866   -0.6317   -2.6002 C   0  0  0  0  0  0  0  0  0  0  0  0
    2.8253   -2.3602   -2.3365 C   0  0  0  0  0  0  0  0  0  0  0  0
    4.2856   -1.7080   -0.1597 C   0  0  2  0  0  0  0  0  0  0  0  0
    4.9365   -0.4800    0.4543 C   0  0  0  0  0  0  0  0  0  0  0  0
    3.3078   -2.3864    0.8121 C   0  0  2  0  0  0  0  0  0  0  0  0
    3.0509   -1.5897    1.9744 O   0  0  0  0  0  0  0  0  0  0  0  0
    2.3669   -4.4159    1.5389 O   0  0  0  0  0  0  0  0  0  0  0  0
    1.1691   -5.7465    4.3708 H   0  0  0  0  0  0  0  0  0  0  0  0
    1.3526   -6.5215    2.7979 H   0  0  0  0  0  0  0  0  0  0  0  0
    0.2394   -5.1745    2.9951 H   0  0  0  0  0  0  0  0  0  0  0  0
    1.1582   -2.7629    3.3153 H   0  0  0  0  0  0  0  0  0  0  0  0
    2.1177   -3.3175    4.6752 H   0  0  0  0  0  0  0  0  0  0  0  0
    3.2347   -1.3526    3.9672 H   0  0  0  0  0  0  0  0  0  0  0  0
    5.3906   -2.1736    2.8850 H   0  0  0  0  0  0  0  0  0  0  0  0
    4.9276   -3.0836    4.2876 H   0  0  0  0  0  0  0  0  0  0  0  0
    5.9643   -5.6287    1.6334 H   0  0  0  0  0  0  0  0  0  0  0  0
    6.4794   -4.8404    3.1013 H   0  0  0  0  0  0  0  0  0  0  0  0
    6.5794   -3.9672    1.5824 H   0  0  0  0  0  0  0  0  0  0  0  0
    3.9705   -5.1695    4.2569 H   0  0  0  0  0  0  0  0  0  0  0  0
    3.8180   -6.1328    2.7852 H   0  0  0  0  0  0  0  0  0  0  0  0
    4.2560   -5.6996    0.1475 H   0  0  0  0  0  0  0  0  0  0  0  0
    3.0644   -4.8076   -0.6930 H   0  0  0  0  0  0  0  0  0  0  0  0
    6.0768   -4.4066   -0.6175 H   0  0  0  0  0  0  0  0  0  0  0  0
    4.3758   -5.1350   -2.4021 H   0  0  0  0  0  0  0  0  0  0  0  0
    6.1571   -2.2097   -1.2966 H   0  0  0  0  0  0  0  0  0  0  0  0
    3.7776    0.1861   -2.5352 H   0  0  0  0  0  0  0  0  0  0  0  0
    4.5246   -0.9471   -3.6449 H   0  0  0  0  0  0  0  0  0  0  0  0
    5.4654   -0.2601   -2.3115 H   0  0  0  0  0  0  0  0  0  0  0  0
    2.0816   -1.5757   -2.3998 H   0  0  0  0  0  0  0  0  0  0  0  0
    2.4002   -3.1812   -1.7686 H   0  0  0  0  0  0  0  0  0  0  0  0
    3.0227   -2.6973   -3.3576 H   0  0  0  0  0  0  0  0  0  0  0  0
    4.1912    0.3059    0.5306 H   0  0  0  0  0  0  0  0  0  0  0  0
    5.7555   -0.1449   -0.1735 H   0  0  0  0  0  0  0  0  0  0  0  0
    5.3617   -0.6796    1.4298 H   0  0  0  0  0  0  0  0  0  0  0  0
    2.3530   -2.3782    0.2916 H   0  0  0  0  0  0  0  0  0  0  0  0
  2  1  1  6
  1 22  1  0
  1 23  1  0
  1 24  1  0
  2  8  1  0
  2 21  1  0
  2  3  1  0
  3  4  1  0
  3 25  1  0
  3 26  1  0
  4 20  1  0
  4  5  1  0
  4 27  1  1
  5  6  1  0
  5 28  1  0
  5 29  1  0
  6  7  1  6
  6  8  1  0
  6  9  1  0
  7 30  1  0
  7 31  1  0
  7 32  1  0
  8 33  1  0
  8 34  1  0
  9 19  1  0
  9 10  1  0
  9 21  1  1
 10 11  1  0
 10 35  1  0
 10 36  1  0
 11 12  1  0
 11 13  1  0
 11 37  1  1
 12 38  1  0
 13 17  1  0
 13 14  1  0
 13 39  1  6
 14 15  1  0
 14 16  1  0
 14 17  1  0
 15 40  1  0
 15 41  1  0
 15 42  1  0
 16 43  1  0
 16 44  1  0
 16 45  1  0
 17 18  1  1
 17 19  1  0
 18 46  1  0
 18 47  1  0
 18 48  1  0
 19 20  1  0
 19 49  1  6
M  END
>  <i_m_ct_stereo_status>  (95) 
1

>  <s_m_source_file>  (95) 
/var/tmp/pbs.5083858.sched01/tmpbb0qt8oz/40b9btvjb8.sdf

>  <i_m_source_file_index>  (95) 
2

>  <i_lp_mmshare_version>  (95) 
48012

>  <i_f3d_flags>  (95) 
0

>  <s_epik_input>  (95) 
W0NIM11bQ0BdKE8xKShbQ0gyXTIpW0NIMl1bQ0BASF0oW0NIMl1bQ0BAXTIoW0NAXTEzNClbQ0gzXSlPW0NASF00W0NAQF01KFtDSDNdKVtDQEBIXShbQ0BASF0oW0NIMl0zKVtPSF0pQzUoW0NIM10pW0NIM10=

>  <s_epik_cmdline>  (95) 
J2VwaWtfcHl0aG9uJywgJy1waHQnLCAnMi4wJywgJy1waCcsICc3LjAnLCAnLXRuJywgJzgnLCAnLW1hJywgJzIwMCcsICctaW1hZScsICc8aW5maWxlLm1hZT4nLCAnLW9tYWUnLCAnPG91dGZpbGUubWFlPic=

>  <r_lp_tautomer_probability>  (95) 
1

>  <r_epik_Ionization_Penalty>  (95) 
2.43078e-07

>  <r_epik_Ionization_Penalty_Charging>  (95) 
0

>  <r_epik_Ionization_Penalty_Neutral>  (95) 
2.43078e-07

>  <r_epik_State_Penalty>  (95) 
-0

>  <r_epik_Charging_Adjusted_Penalty>  (95) 
0

>  <i_epik_Tot_Q>  (95) 
0

>  <i_epik_Tot_abs_Q>  (95) 
0

>  <s_lp_Force_Field>  (95) 
OPLS3e

>  <r_lp_Energy>  (95) 
55.8638

>  <b_lp_Chiralities_Consistent>  (95) 
1

>  <s_lp_Variant>  (95) 
29:0-1

>  <s_i_glide_gridfile>  (95) 
pfpi4k_grid

>  <i_i_glide_lignum>  (95) 
2

>  <i_i_glide_rotatable_bonds>  (95) 
1

>  <r_i_docking_score>  (95) 
-3.40063

>  <r_i_glide_ligand_efficiency>  (95) 
-0.161935

>  <r_i_glide_ligand_efficiency_sa>  (95) 
-0.446766

>  <r_i_glide_ligand_efficiency_ln>  (95) 
-0.840799

>  <r_i_glide_gscore>  (95) 
-3.40063

>  <r_i_glide_lipo>  (95) 
-0.282212

>  <r_i_glide_hbond>  (95) 
-0.32

>  <r_i_glide_metal>  (95) 
-0

>  <r_i_glide_rewards>  (95) 
-1.41537

>  <r_i_glide_evdw>  (95) 
-16.2417

>  <r_i_glide_ecoul>  (95) 
-3.80645

>  <r_i_glide_erotb>  (95) 
0

>  <r_i_glide_esite>  (95) 
0

>  <r_i_glide_emodel>  (95) 
-23.6721

>  <r_i_glide_energy>  (95) 
-20.0482

>  <r_i_glide_einternal>  (95) 
1.44341

>  <r_i_glide_intrahb_reward>  (95) 
-0

>  <i_i_glide_confnum>  (95) 
2

>  <i_i_glide_posenum>  (95) 
6

>  <r_i_glide_eff_state_penalty>  (95) 
0

>  <ligand_id>  (95) 
29

>  <original_smiles>  (95) 
CC12CC3CC(C)(C1)C1(CC(O)C4C(C)(C)C4(C)C1O3)O2

>  <smiles>  (95) 
[H]OC1([H])C([H])([H])C23OC4(C([H])([H])[H])C([H])([H])C([H])(OC2([H])C2(C([H])([H])[H])C1([H])C2(C([H])([H])[H])C([H])([H])[H])C([H])([H])C3(C([H])([H])[H])C4([H])[H]

$$$$
29:0:2
     RDKit          3D

 49 53  0  0  1  0  0  0  0  0999 V2000
    4.2106   -0.8039   -3.0255 C   0  0  0  0  0  0  0  0  0  0  0  0
    4.1894   -1.7505   -1.8191 C   0  0  1  0  0  0  0  0  0  0  0  0
    3.0837   -2.8293   -1.9304 C   0  0  0  0  0  0  0  0  0  0  0  0
    3.0395   -3.7754   -0.7032 C   0  0  1  0  0  0  0  0  0  0  0  0
    4.4482   -4.1655   -0.2445 C   0  0  0  0  0  0  0  0  0  0  0  0
    5.2816   -2.8775   -0.0819 C   0  0  1  0  0  0  0  0  0  0  0  0
    6.5999   -3.1990    0.6478 C   0  0  0  0  0  0  0  0  0  0  0  0
    5.5467   -2.3620   -1.4958 C   0  0  0  0  0  0  0  0  0  0  0  0
    4.3882   -1.7210    0.5099 C   0  0  2  0  0  0  0  0  0  0  0  0
    5.1027   -0.6483    1.3625 C   0  0  0  0  0  0  0  0  0  0  0  0
    5.3014   -1.0276    2.8416 C   0  0  1  0  0  0  0  0  0  0  0  0
    5.5503    0.1261    3.6128 O   0  0  0  0  0  0  0  0  0  0  0  0
    4.1818   -1.8285    3.4900 C   0  0  1  0  0  0  0  0  0  0  0  0
    2.7638   -1.3487    3.6898 C   0  0  0  0  0  0  0  0  0  0  0  0
    2.0923   -1.6766    5.0199 C   0  0  0  0  0  0  0  0  0  0  0  0
    2.3005    0.0465    3.2800 C   0  0  0  0  0  0  0  0  0  0  0  0
    3.0744   -2.4543    2.6591 C   0  0  2  0  0  0  0  0  0  0  0  0
    2.6047   -3.8720    2.9826 C   0  0  0  0  0  0  0  0  0  0  0  0
    3.0254   -2.1568    1.1402 C   0  0  2  0  0  0  0  0  0  0  0  0
    2.3670   -3.1990    0.4107 O   0  0  0  0  0  0  0  0  0  0  0  0
    3.9915   -0.9858   -0.6494 O   0  0  0  0  0  0  0  0  0  0  0  0
    4.4274   -1.3352   -3.9522 H   0  0  0  0  0  0  0  0  0  0  0  0
    4.9657   -0.0336   -2.8816 H   0  0  0  0  0  0  0  0  0  0  0  0
    3.2517   -0.2988   -3.1442 H   0  0  0  0  0  0  0  0  0  0  0  0
    2.1134   -2.3593   -2.0852 H   0  0  0  0  0  0  0  0  0  0  0  0
    3.2785   -3.4292   -2.8194 H   0  0  0  0  0  0  0  0  0  0  0  0
    2.4626   -4.6577   -0.9610 H   0  0  0  0  0  0  0  0  0  0  0  0
    4.4006   -4.7156    0.6922 H   0  0  0  0  0  0  0  0  0  0  0  0
    4.9051   -4.8465   -0.9638 H   0  0  0  0  0  0  0  0  0  0  0  0
    7.2657   -2.3375    0.6980 H   0  0  0  0  0  0  0  0  0  0  0  0
    7.1433   -3.9900    0.1283 H   0  0  0  0  0  0  0  0  0  0  0  0
    6.4166   -3.5499    1.6634 H   0  0  0  0  0  0  0  0  0  0  0  0
    5.8483   -3.1357   -2.2048 H   0  0  0  0  0  0  0  0  0  0  0  0
    6.3178   -1.5921   -1.4892 H   0  0  0  0  0  0  0  0  0  0  0  0
    6.0664   -0.3951    0.9209 H   0  0  0  0  0  0  0  0  0  0  0  0
    4.5372    0.2785    1.2875 H   0  0  0  0  0  0  0  0  0  0  0  0
    6.1998   -1.6391    2.9070 H   0  0  0  0  0  0  0  0  0  0  0  0
    4.7758    0.6739    3.5943 H   0  0  0  0  0  0  0  0  0  0  0  0
    4.5619   -2.4522    4.2990 H   0  0  0  0  0  0  0  0  0  0  0  0
    1.0229   -1.8403    4.8752 H   0  0  0  0  0  0  0  0  0  0  0  0
    2.2282   -0.8597    5.7309 H   0  0  0  0  0  0  0  0  0  0  0  0
    2.5236   -2.5662    5.4781 H   0  0  0  0  0  0  0  0  0  0  0  0
    1.2150    0.0627    3.1647 H   0  0  0  0  0  0  0  0  0  0  0  0
    2.7315    0.3766    2.3417 H   0  0  0  0  0  0  0  0  0  0  0  0
    2.5738    0.7759    4.0442 H   0  0  0  0  0  0  0  0  0  0  0  0
    1.5347   -3.9641    2.8005 H   0  0  0  0  0  0  0  0  0  0  0  0
    2.7986   -4.1262    4.0218 H   0  0  0  0  0  0  0  0  0  0  0  0
    3.1252   -4.6145    2.3882 H   0  0  0  0  0  0  0  0  0  0  0  0
    2.3392   -1.3195    1.0224 H   0  0  0  0  0  0  0  0  0  0  0  0
  2  1  1  6
  1 22  1  0
  1 23  1  0
  1 24  1  0
  2  8  1  0
  2 21  1  0
  2  3  1  0
  3  4  1  0
  3 25  1  0
  3 26  1  0
  4 20  1  0
  4  5  1  0
  4 27  1  6
  5  6  1  0
  5 28  1  0
  5 29  1  0
  6  7  1  1
  6  8  1  0
  6  9  1  0
  7 30  1  0
  7 31  1  0
  7 32  1  0
  8 33  1  0
  8 34  1  0
  9 19  1  0
  9 10  1  0
  9 21  1  6
 10 11  1  0
 10 35  1  0
 10 36  1  0
 11 12  1  0
 11 13  1  0
 11 37  1  6
 12 38  1  0
 13 17  1  0
 13 14  1  0
 13 39  1  1
 14 15  1  0
 14 16  1  0
 14 17  1  0
 15 40  1  0
 15 41  1  0
 15 42  1  0
 16 43  1  0
 16 44  1  0
 16 45  1  0
 17 18  1  6
 17 19  1  0
 18 46  1  0
 18 47  1  0
 18 48  1  0
 19 20  1  0
 19 49  1  1
M  END
>  <i_m_ct_stereo_status>  (96) 
1

>  <s_m_source_file>  (96) 
/var/tmp/pbs.5083858.sched01/tmpbb0qt8oz/40b9btvjb8.sdf

>  <i_m_source_file_index>  (96) 
2

>  <i_lp_mmshare_version>  (96) 
48012

>  <i_f3d_flags>  (96) 
0

>  <s_epik_input>  (96) 
W0NIM11bQ0BdKE8xKShbQ0gyXTIpW0NIMl1bQ0BASF0oW0NIMl1bQ0BAXTIoW0NAXTEzNClbQ0gzXSlPW0NASF00W0NAQF01KFtDSDNdKVtDQEBIXShbQ0BASF0oW0NIMl0zKVtPSF0pQzUoW0NIM10pW0NIM10=

>  <s_epik_cmdline>  (96) 
J2VwaWtfcHl0aG9uJywgJy1waHQnLCAnMi4wJywgJy1waCcsICc3LjAnLCAnLXRuJywgJzgnLCAnLW1hJywgJzIwMCcsICctaW1hZScsICc8aW5maWxlLm1hZT4nLCAnLW9tYWUnLCAnPG91dGZpbGUubWFlPic=

>  <r_lp_tautomer_probability>  (96) 
1

>  <r_epik_Ionization_Penalty>  (96) 
2.43078e-07

>  <r_epik_Ionization_Penalty_Charging>  (96) 
0

>  <r_epik_Ionization_Penalty_Neutral>  (96) 
2.43078e-07

>  <r_epik_State_Penalty>  (96) 
-0

>  <r_epik_Charging_Adjusted_Penalty>  (96) 
0

>  <i_epik_Tot_Q>  (96) 
0

>  <i_epik_Tot_abs_Q>  (96) 
0

>  <s_lp_Force_Field>  (96) 
OPLS3e

>  <r_lp_Energy>  (96) 
55.8638

>  <b_lp_Chiralities_Consistent>  (96) 
1

>  <s_lp_Variant>  (96) 
29:0-1

>  <s_i_glide_gridfile>  (96) 
pfpi4k_grid

>  <i_i_glide_lignum>  (96) 
2

>  <i_i_glide_rotatable_bonds>  (96) 
1

>  <r_i_docking_score>  (96) 
-3.18157

>  <r_i_glide_ligand_efficiency>  (96) 
-0.151503

>  <r_i_glide_ligand_efficiency_sa>  (96) 
-0.417986

>  <r_i_glide_ligand_efficiency_ln>  (96) 
-0.786636

>  <r_i_glide_gscore>  (96) 
-3.18157

>  <r_i_glide_lipo>  (96) 
-0.49994

>  <r_i_glide_hbond>  (96) 
-0.0139806

>  <r_i_glide_metal>  (96) 
-0

>  <r_i_glide_rewards>  (96) 
-1.41537

>  <r_i_glide_evdw>  (96) 
-24.0505

>  <r_i_glide_ecoul>  (96) 
-0.331686

>  <r_i_glide_erotb>  (96) 
0

>  <r_i_glide_esite>  (96) 
0

>  <r_i_glide_emodel>  (96) 
-29.1405

>  <r_i_glide_energy>  (96) 
-24.3822

>  <r_i_glide_einternal>  (96) 
0.00127854

>  <r_i_glide_intrahb_reward>  (96) 
-0

>  <i_i_glide_confnum>  (96) 
2

>  <i_i_glide_posenum>  (96) 
5

>  <r_i_glide_eff_state_penalty>  (96) 
0

>  <ligand_id>  (96) 
29

>  <original_smiles>  (96) 
CC12CC3CC(C)(C1)C1(CC(O)C4C(C)(C)C4(C)C1O3)O2

>  <smiles>  (96) 
[H]OC1([H])C([H])([H])C23OC4(C([H])([H])[H])C([H])([H])C([H])(OC2([H])C2(C([H])([H])[H])C1([H])C2(C([H])([H])[H])C([H])([H])[H])C([H])([H])C3(C([H])([H])[H])C4([H])[H]

$$$$
30:0:0
     RDKit          3D

 71 74  0  0  1  0  0  0  0  0999 V2000
   -0.6557    0.7115    3.6788 C   0  0  0  0  0  0  0  0  0  0  0  0
   -0.4839    0.6777    5.2038 C   0  0  2  0  0  0  0  0  0  0  0  0
    0.8360   -0.0047    5.6435 C   0  0  0  0  0  0  0  0  0  0  0  0
    0.8886   -1.4918    5.3271 C   0  0  0  0  0  0  0  0  0  0  0  0
    1.2500   -2.4479    6.1988 C   0  0  0  0  0  0  0  0  0  0  0  0
    1.4175   -3.9262    5.8665 C   0  0  2  0  0  0  0  0  0  0  0  0
    1.9442   -4.6869    7.1289 C   0  0  0  0  0  0  0  0  0  0  0  0
    2.1633   -4.1777    4.4959 C   0  0  2  0  0  0  0  0  0  0  0  0
    2.3008   -5.6804    4.1316 C   0  0  0  0  0  0  0  0  0  0  0  0
    3.6798   -5.8641    3.4843 C   0  0  0  0  0  0  0  0  0  0  0  0
    4.1766   -4.4596    3.1103 C   0  0  1  0  0  0  0  0  0  0  0  0
    3.9185   -4.0835    1.6180 C   0  0  1  0  0  0  0  0  0  0  0  0
    2.5773   -4.5529    1.0129 C   0  0  0  0  0  0  0  0  0  0  0  0
    2.3327   -3.9754   -0.3734 C   0  0  0  0  0  0  0  0  0  0  0  0
    1.4045   -4.6133   -1.1152 F   0  0  0  0  0  0  0  0  0  0  0  0
    3.0159   -2.9719   -0.9153 C   0  0  0  0  0  0  0  0  0  0  0  0
    2.8830   -2.6169   -2.3949 C   0  0  0  0  0  0  0  0  0  0  0  0
    4.1906   -2.9974   -3.0870 C   0  0  0  0  0  0  0  0  0  0  0  0
    4.2207   -3.6210   -4.1356 O   0  0  0  0  0  0  0  0  0  0  0  0
    5.4776   -2.4919   -2.4228 C   0  0  0  0  0  0  0  0  0  0  0  0
    5.4698   -2.6854   -0.8891 C   0  0  1  0  0  0  0  0  0  0  0  0
    6.6044   -2.0093   -0.3738 O   0  0  0  0  0  0  0  0  0  0  0  0
    4.1524   -2.2168   -0.1837 C   0  0  1  0  0  0  0  0  0  0  0  0
    4.0066   -0.6866   -0.3498 C   0  0  0  0  0  0  0  0  0  0  0  0
    4.1675   -2.5837    1.3454 C   0  0  1  0  0  0  0  0  0  0  0  0
    3.2925   -1.7091    2.2865 C   0  0  1  0  0  0  0  0  0  0  0  0
    1.9044   -1.7807    2.0089 O   0  0  0  0  0  0  0  0  0  0  0  0
    3.6442   -2.0255    3.7592 C   0  0  0  0  0  0  0  0  0  0  0  0
    3.5776   -3.5287    4.1994 C   0  0  1  0  0  0  0  0  0  0  0  0
    4.4953   -3.6250    5.4361 C   0  0  0  0  0  0  0  0  0  0  0  0
   -1.6950    0.0268    5.8834 C   0  0  0  0  0  0  0  0  0  0  0  0
   -2.1543    0.5741    6.8765 O   0  0  0  0  0  0  0  0  0  0  0  0
   -2.1248   -1.0800    5.4258 O   0  0  0  0  0  0  0  0  0  0  0  0
   -1.5782    1.2198    3.4050 H   0  0  0  0  0  0  0  0  0  0  0  0
   -0.7034   -0.2922    3.2584 H   0  0  0  0  0  0  0  0  0  0  0  0
    0.1701    1.2293    3.1838 H   0  0  0  0  0  0  0  0  0  0  0  0
   -0.4367    1.7142    5.5522 H   0  0  0  0  0  0  0  0  0  0  0  0
    1.6585    0.4663    5.1156 H   0  0  0  0  0  0  0  0  0  0  0  0
    1.0224    0.1595    6.7081 H   0  0  0  0  0  0  0  0  0  0  0  0
    0.6304   -1.7540    4.3090 H   0  0  0  0  0  0  0  0  0  0  0  0
    1.4319   -2.1545    7.2238 H   0  0  0  0  0  0  0  0  0  0  0  0
    0.3976   -4.2749    5.7143 H   0  0  0  0  0  0  0  0  0  0  0  0
    1.3610   -4.3994    8.0138 H   0  0  0  0  0  0  0  0  0  0  0  0
    2.9837   -4.4933    7.3683 H   0  0  0  0  0  0  0  0  0  0  0  0
    1.8198   -5.7691    7.0217 H   0  0  0  0  0  0  0  0  0  0  0  0
    1.4922   -3.7819    3.7326 H   0  0  0  0  0  0  0  0  0  0  0  0
    2.2328   -6.3530    4.9857 H   0  0  0  0  0  0  0  0  0  0  0  0
    1.5064   -5.9943    3.4514 H   0  0  0  0  0  0  0  0  0  0  0  0
    4.3534   -6.2894    4.2318 H   0  0  0  0  0  0  0  0  0  0  0  0
    3.6759   -6.5698    2.6519 H   0  0  0  0  0  0  0  0  0  0  0  0
    5.2619   -4.4400    3.2219 H   0  0  0  0  0  0  0  0  0  0  0  0
    4.6787   -4.6399    1.0675 H   0  0  0  0  0  0  0  0  0  0  0  0
    2.5655   -5.6381    0.9249 H   0  0  0  0  0  0  0  0  0  0  0  0
    1.7458   -4.2844    1.6517 H   0  0  0  0  0  0  0  0  0  0  0  0
    2.0511   -3.1471   -2.8603 H   0  0  0  0  0  0  0  0  0  0  0  0
    2.6942   -1.5571   -2.5209 H   0  0  0  0  0  0  0  0  0  0  0  0
    6.3368   -2.9992   -2.8595 H   0  0  0  0  0  0  0  0  0  0  0  0
    5.5691   -1.4384   -2.6683 H   0  0  0  0  0  0  0  0  0  0  0  0
    5.6104   -3.7534   -0.7113 H   0  0  0  0  0  0  0  0  0  0  0  0
    6.7041   -2.2653    0.5361 H   0  0  0  0  0  0  0  0  0  0  0  0
    4.7301   -0.1405    0.2582 H   0  0  0  0  0  0  0  0  0  0  0  0
    3.0164   -0.3571   -0.0365 H   0  0  0  0  0  0  0  0  0  0  0  0
    4.1603   -0.3473   -1.3731 H   0  0  0  0  0  0  0  0  0  0  0  0
    5.1792   -2.3780    1.6922 H   0  0  0  0  0  0  0  0  0  0  0  0
    3.5469   -0.6574    2.1696 H   0  0  0  0  0  0  0  0  0  0  0  0
    1.7292   -1.4294    1.1375 H   0  0  0  0  0  0  0  0  0  0  0  0
    4.6909   -1.7107    3.8782 H   0  0  0  0  0  0  0  0  0  0  0  0
    3.1176   -1.3575    4.4171 H   0  0  0  0  0  0  0  0  0  0  0  0
    5.5144   -3.3066    5.2222 H   0  0  0  0  0  0  0  0  0  0  0  0
    4.5514   -4.6450    5.8210 H   0  0  0  0  0  0  0  0  0  0  0  0
    4.1263   -2.9721    6.2333 H   0  0  0  0  0  0  0  0  0  0  0  0
  1  2  1  0
  1 34  1  0
  1 35  1  0
  1 36  1  0
  2  3  1  0
  2 31  1  0
  2 37  1  1
  3  4  1  0
  3 38  1  0
  3 39  1  0
  4  5  2  3
  4 40  1  0
  5  6  1  0
  5 41  1  0
  6  7  1  0
  6  8  1  0
  6 42  1  6
  7 43  1  0
  7 44  1  0
  7 45  1  0
  8 29  1  0
  8  9  1  0
  8 46  1  6
  9 10  1  0
  9 47  1  0
  9 48  1  0
 10 11  1  0
 10 49  1  0
 10 50  1  0
 11 29  1  0
 11 12  1  0
 11 51  1  6
 12 25  1  0
 12 13  1  0
 12 52  1  6
 13 14  1  0
 13 53  1  0
 13 54  1  0
 14 15  1  0
 14 16  2  0
 16 23  1  0
 16 17  1  0
 17 18  1  0
 17 55  1  0
 17 56  1  0
 18 19  2  0
 18 20  1  0
 20 21  1  0
 20 57  1  0
 20 58  1  0
 21 22  1  0
 21 23  1  0
 21 59  1  6
 22 60  1  0
 23 24  1  1
 23 25  1  0
 24 61  1  0
 24 62  1  0
 24 63  1  0
 25 26  1  0
 25 64  1  1
 26 27  1  0
 26 28  1  0
 26 65  1  6
 27 66  1  0
 28 29  1  0
 28 67  1  0
 28 68  1  0
 29 30  1  1
 30 69  1  0
 30 70  1  0
 30 71  1  0
 31 32  2  0
 31 33  1  0
M  CHG  1  33  -1
M  END
>  <i_m_ct_stereo_status>  (97) 
1

>  <s_m_source_file>  (97) 
/var/tmp/pbs.5083858.sched01/tmpbb0qt8oz/40b9btvjb8.sdf

>  <i_m_source_file_index>  (97) 
3

>  <i_lp_mmshare_version>  (97) 
48012

>  <i_f3d_flags>  (97) 
0

>  <s_epik_input>  (97) 
Tz1DKFtPSF0pW0NASF0oW0NIM10pW0NIMl0vW0NIXT1bQ0hdL1tDQEhdKFtDSDNdKVtDQEhdKFtDSDJdW0NIMl0xKVtDQF0oW0NIM10pKFtDSDJdW0NAQEhdKFtDQEBIXTIzKVtPSF0pW0NAQEhdMVtDQEhdMltDSDJdQyhGKT1DKFtDQEBdMzRbQ0gzXSlbQ0gyXUMoPU8pW0NIMl1bQ0BIXTRbT0hd

>  <s_epik_cmdline>  (97) 
J2VwaWtfcHl0aG9uJywgJy1waHQnLCAnMi4wJywgJy1waCcsICc3LjAnLCAnLXRuJywgJzgnLCAnLW1hJywgJzIwMCcsICctaW1hZScsICc8aW5maWxlLm1hZT4nLCAnLW9tYWUnLCAnPG91dGZpbGUubWFlPic=

>  <r_lp_tautomer_probability>  (97) 
0.99995

>  <r_epik_Ionization_Penalty>  (97) 
0.00214345

>  <r_epik_Ionization_Penalty_Charging>  (97) 
0.00214303

>  <r_epik_Ionization_Penalty_Neutral>  (97) 
4.26391e-07

>  <r_epik_State_Penalty>  (97) 
0.00147075

>  <r_epik_Charging_Adjusted_Penalty>  (97) 
0.00361378

>  <i_epik_Tot_Q>  (97) 
-1

>  <i_epik_Tot_abs_Q>  (97) 
1

>  <s_lp_Force_Field>  (97) 
OPLS3e

>  <r_lp_Energy>  (97) 
48.6715

>  <b_lp_Chiralities_Consistent>  (97) 
1

>  <s_lp_Variant>  (97) 
30:0-1

>  <s_i_glide_gridfile>  (97) 
pfpi4k_grid

>  <i_i_glide_lignum>  (97) 
3

>  <i_i_glide_rotatable_bonds>  (97) 
7

>  <r_i_docking_score>  (97) 
-3.1946

>  <r_i_glide_ligand_efficiency>  (97) 
-0.0968062

>  <r_i_glide_ligand_efficiency_sa>  (97) 
-0.310509

>  <r_i_glide_ligand_efficiency_ln>  (97) 
-0.710463

>  <r_i_glide_gscore>  (97) 
-3.1946

>  <r_i_glide_lipo>  (97) 
-0.0899685

>  <r_i_glide_hbond>  (97) 
-0.410023

>  <r_i_glide_metal>  (97) 
-0

>  <r_i_glide_rewards>  (97) 
-0.378464

>  <r_i_glide_evdw>  (97) 
-22.8813

>  <r_i_glide_ecoul>  (97) 
-9.20608

>  <r_i_glide_erotb>  (97) 
0.378057

>  <r_i_glide_esite>  (97) 
-0.169229

>  <r_i_glide_emodel>  (97) 
-36.9492

>  <r_i_glide_energy>  (97) 
-32.0874

>  <r_i_glide_einternal>  (97) 
9.38995

>  <r_i_glide_intrahb_reward>  (97) 
-0

>  <i_i_glide_confnum>  (97) 
3

>  <i_i_glide_posenum>  (97) 
8

>  <r_i_glide_eff_state_penalty>  (97) 
0

>  <ligand_id>  (97) 
30

>  <original_smiles>  (97) 
CC(CC=CC(C)C1CCC2C3CC(F)=C4CC(=O)CC(O)C4(C)C3C(O)CC12C)C(=O)O

>  <smiles>  (97) 
[H]OC1([H])C([H])([H])C2(C([H])([H])[H])C([H])(C([H])(C([H])=C([H])C([H])([H])C([H])(C(=O)[O-])C([H])([H])[H])C([H])([H])[H])C([H])([H])C([H])([H])C2([H])C2([H])C([H])([H])C(F)=C3C([H])([H])C(=O)C([H])([H])C([H])(O[H])C3(C([H])([H])[H])C12[H]

$$$$
30:0:1
     RDKit          3D

 71 74  0  0  1  0  0  0  0  0999 V2000
    3.6837   -1.1648   -4.2902 C   0  0  0  0  0  0  0  0  0  0  0  0
    3.3618   -2.6385   -4.0031 C   0  0  2  0  0  0  0  0  0  0  0  0
    2.3744   -2.8099   -2.8346 C   0  0  0  0  0  0  0  0  0  0  0  0
    2.8761   -2.2868   -1.5088 C   0  0  0  0  0  0  0  0  0  0  0  0
    3.4752   -3.0873   -0.6011 C   0  0  0  0  0  0  0  0  0  0  0  0
    3.9957   -2.6665    0.7596 C   0  0  2  0  0  0  0  0  0  0  0  0
    5.4115   -2.0705    0.5726 C   0  0  0  0  0  0  0  0  0  0  0  0
    3.8141   -3.7826    1.8613 C   0  0  2  0  0  0  0  0  0  0  0  0
    4.4451   -3.4103    3.2316 C   0  0  0  0  0  0  0  0  0  0  0  0
    5.0794   -4.6832    3.8075 C   0  0  0  0  0  0  0  0  0  0  0  0
    4.4894   -5.8527    3.0098 C   0  0  1  0  0  0  0  0  0  0  0  0
    3.2921   -6.5431    3.7270 C   0  0  1  0  0  0  0  0  0  0  0  0
    2.2959   -5.6213    4.4694 C   0  0  0  0  0  0  0  0  0  0  0  0
    1.0751   -6.3641    4.9735 C   0  0  0  0  0  0  0  0  0  0  0  0
    0.3621   -5.7903    5.9446 F   0  0  0  0  0  0  0  0  0  0  0  0
    0.7278   -7.6175    4.5699 C   0  0  0  0  0  0  0  0  0  0  0  0
   -0.3726   -8.3788    5.2713 C   0  0  0  0  0  0  0  0  0  0  0  0
    0.2811   -9.5019    6.0507 C   0  0  0  0  0  0  0  0  0  0  0  0
    0.0129   -9.6805    7.2464 O   0  0  0  0  0  0  0  0  0  0  0  0
    1.2414  -10.4010    5.2700 C   0  0  0  0  0  0  0  0  0  0  0  0
    2.2037   -9.5662    4.3785 C   0  0  1  0  0  0  0  0  0  0  0  0
    2.9538  -10.4426    3.5569 O   0  0  0  0  0  0  0  0  0  0  0  0
    1.5055   -8.4337    3.5442 C   0  0  1  0  0  0  0  0  0  0  0  0
    0.5364   -9.0897    2.5151 C   0  0  0  0  0  0  0  0  0  0  0  0
    2.5637   -7.5399    2.7965 C   0  0  1  0  0  0  0  0  0  0  0  0
    2.0719   -6.8139    1.5245 C   0  0  1  0  0  0  0  0  0  0  0  0
    1.0423   -5.8619    1.7396 O   0  0  0  0  0  0  0  0  0  0  0  0
    3.2522   -6.1845    0.7724 C   0  0  0  0  0  0  0  0  0  0  0  0
    4.2432   -5.2759    1.5862 C   0  0  1  0  0  0  0  0  0  0  0  0
    5.6067   -5.3227    0.8443 C   0  0  0  0  0  0  0  0  0  0  0  0
    4.6451   -3.4580   -3.8107 C   0  0  0  0  0  0  0  0  0  0  0  0
    5.4254   -3.1670   -2.8709 O   0  0  0  0  0  0  0  0  0  0  0  0
    4.9014   -4.2800   -4.7142 O   0  0  0  0  0  0  0  0  0  0  0  0
    4.3400   -1.0571   -5.1463 H   0  0  0  0  0  0  0  0  0  0  0  0
    4.1760   -0.6948   -3.4425 H   0  0  0  0  0  0  0  0  0  0  0  0
    2.7722   -0.6114   -4.5045 H   0  0  0  0  0  0  0  0  0  0  0  0
    2.8766   -3.0603   -4.8801 H   0  0  0  0  0  0  0  0  0  0  0  0
    1.4393   -2.3147   -3.0682 H   0  0  0  0  0  0  0  0  0  0  0  0
    2.1049   -3.8644   -2.7402 H   0  0  0  0  0  0  0  0  0  0  0  0
    2.7459   -1.2348   -1.3164 H   0  0  0  0  0  0  0  0  0  0  0  0
    3.6222   -4.1010   -0.9231 H   0  0  0  0  0  0  0  0  0  0  0  0
    3.3603   -1.8390    1.0770 H   0  0  0  0  0  0  0  0  0  0  0  0
    5.4139   -1.3810   -0.2752 H   0  0  0  0  0  0  0  0  0  0  0  0
    6.1709   -2.8133    0.3402 H   0  0  0  0  0  0  0  0  0  0  0  0
    5.7473   -1.5020    1.4346 H   0  0  0  0  0  0  0  0  0  0  0  0
    2.7405   -3.8240    2.0441 H   0  0  0  0  0  0  0  0  0  0  0  0
    5.2286   -2.6558    3.1787 H   0  0  0  0  0  0  0  0  0  0  0  0
    3.6972   -3.0018    3.9149 H   0  0  0  0  0  0  0  0  0  0  0  0
    6.1577   -4.6496    3.6346 H   0  0  0  0  0  0  0  0  0  0  0  0
    4.9609   -4.7722    4.8901 H   0  0  0  0  0  0  0  0  0  0  0  0
    5.2566   -6.6240    2.9328 H   0  0  0  0  0  0  0  0  0  0  0  0
    3.7610   -7.1344    4.5183 H   0  0  0  0  0  0  0  0  0  0  0  0
    2.7818   -5.1747    5.3400 H   0  0  0  0  0  0  0  0  0  0  0  0
    1.9501   -4.7867    3.8647 H   0  0  0  0  0  0  0  0  0  0  0  0
   -0.8718   -7.7012    5.9375 H   0  0  0  0  0  0  0  0  0  0  0  0
   -1.1101   -8.7830    4.5790 H   0  0  0  0  0  0  0  0  0  0  0  0
    1.8169  -11.0285    5.9506 H   0  0  0  0  0  0  0  0  0  0  0  0
    0.6427  -11.0810    4.6614 H   0  0  0  0  0  0  0  0  0  0  0  0
    2.9157   -9.0994    5.0596 H   0  0  0  0  0  0  0  0  0  0  0  0
    2.3620  -10.9808    3.0524 H   0  0  0  0  0  0  0  0  0  0  0  0
    1.0902   -9.5779    1.7119 H   0  0  0  0  0  0  0  0  0  0  0  0
   -0.1261   -8.3533    2.0579 H   0  0  0  0  0  0  0  0  0  0  0  0
   -0.1089   -9.8503    2.9511 H   0  0  0  0  0  0  0  0  0  0  0  0
    3.3282   -8.2267    2.4323 H   0  0  0  0  0  0  0  0  0  0  0  0
    1.6455   -7.5497    0.8511 H   0  0  0  0  0  0  0  0  0  0  0  0
    1.3624   -5.2309    2.3648 H   0  0  0  0  0  0  0  0  0  0  0  0
    3.8438   -7.0259    0.3918 H   0  0  0  0  0  0  0  0  0  0  0  0
    2.8211   -5.7266   -0.1037 H   0  0  0  0  0  0  0  0  0  0  0  0
    6.0058   -6.3358    0.7594 H   0  0  0  0  0  0  0  0  0  0  0  0
    6.3686   -4.7417    1.3631 H   0  0  0  0  0  0  0  0  0  0  0  0
    5.5321   -4.9433   -0.1755 H   0  0  0  0  0  0  0  0  0  0  0  0
  1  2  1  0
  1 34  1  0
  1 35  1  0
  1 36  1  0
  2  3  1  0
  2 31  1  0
  2 37  1  6
  3  4  1  0
  3 38  1  0
  3 39  1  0
  4  5  2  3
  4 40  1  0
  5  6  1  0
  5 41  1  0
  6  7  1  0
  6  8  1  0
  6 42  1  1
  7 43  1  0
  7 44  1  0
  7 45  1  0
  8 29  1  0
  8  9  1  0
  8 46  1  1
  9 10  1  0
  9 47  1  0
  9 48  1  0
 10 11  1  0
 10 49  1  0
 10 50  1  0
 11 29  1  0
 11 12  1  0
 11 51  1  6
 12 25  1  0
 12 13  1  0
 12 52  1  1
 13 14  1  0
 13 53  1  0
 13 54  1  0
 14 15  1  0
 14 16  2  0
 16 23  1  0
 16 17  1  0
 17 18  1  0
 17 55  1  0
 17 56  1  0
 18 19  2  0
 18 20  1  0
 20 21  1  0
 20 57  1  0
 20 58  1  0
 21 22  1  0
 21 23  1  0
 21 59  1  1
 22 60  1  0
 23 24  1  6
 23 25  1  0
 24 61  1  0
 24 62  1  0
 24 63  1  0
 25 26  1  0
 25 64  1  6
 26 27  1  0
 26 28  1  0
 26 65  1  6
 27 66  1  0
 28 29  1  0
 28 67  1  0
 28 68  1  0
 29 30  1  6
 30 69  1  0
 30 70  1  0
 30 71  1  0
 31 32  2  0
 31 33  1  0
M  CHG  1  33  -1
M  END
>  <i_m_ct_stereo_status>  (98) 
1

>  <s_m_source_file>  (98) 
/var/tmp/pbs.5083858.sched01/tmpbb0qt8oz/40b9btvjb8.sdf

>  <i_m_source_file_index>  (98) 
3

>  <i_lp_mmshare_version>  (98) 
48012

>  <i_f3d_flags>  (98) 
0

>  <s_epik_input>  (98) 
Tz1DKFtPSF0pW0NASF0oW0NIM10pW0NIMl0vW0NIXT1bQ0hdL1tDQEhdKFtDSDNdKVtDQEhdKFtDSDJdW0NIMl0xKVtDQF0oW0NIM10pKFtDSDJdW0NAQEhdKFtDQEBIXTIzKVtPSF0pW0NAQEhdMVtDQEhdMltDSDJdQyhGKT1DKFtDQEBdMzRbQ0gzXSlbQ0gyXUMoPU8pW0NIMl1bQ0BIXTRbT0hd

>  <s_epik_cmdline>  (98) 
J2VwaWtfcHl0aG9uJywgJy1waHQnLCAnMi4wJywgJy1waCcsICc3LjAnLCAnLXRuJywgJzgnLCAnLW1hJywgJzIwMCcsICctaW1hZScsICc8aW5maWxlLm1hZT4nLCAnLW9tYWUnLCAnPG91dGZpbGUubWFlPic=

>  <r_lp_tautomer_probability>  (98) 
0.99995

>  <r_epik_Ionization_Penalty>  (98) 
0.00214345

>  <r_epik_Ionization_Penalty_Charging>  (98) 
0.00214303

>  <r_epik_Ionization_Penalty_Neutral>  (98) 
4.26391e-07

>  <r_epik_State_Penalty>  (98) 
0.00147075

>  <r_epik_Charging_Adjusted_Penalty>  (98) 
0.00361378

>  <i_epik_Tot_Q>  (98) 
-1

>  <i_epik_Tot_abs_Q>  (98) 
1

>  <s_lp_Force_Field>  (98) 
OPLS3e

>  <r_lp_Energy>  (98) 
48.6715

>  <b_lp_Chiralities_Consistent>  (98) 
1

>  <s_lp_Variant>  (98) 
30:0-1

>  <s_i_glide_gridfile>  (98) 
pfpi4k_grid

>  <i_i_glide_lignum>  (98) 
3

>  <i_i_glide_rotatable_bonds>  (98) 
7

>  <r_i_docking_score>  (98) 
-2.5708

>  <r_i_glide_ligand_efficiency>  (98) 
-0.0779031

>  <r_i_glide_ligand_efficiency_sa>  (98) 
-0.249877

>  <r_i_glide_ligand_efficiency_ln>  (98) 
-0.571733

>  <r_i_glide_gscore>  (98) 
-2.5708

>  <r_i_glide_lipo>  (98) 
-0.271064

>  <r_i_glide_hbond>  (98) 
-0.130026

>  <r_i_glide_metal>  (98) 
-0

>  <r_i_glide_rewards>  (98) 
-0.468606

>  <r_i_glide_evdw>  (98) 
-22.9344

>  <r_i_glide_ecoul>  (98) 
-5.72984

>  <r_i_glide_erotb>  (98) 
0.378057

>  <r_i_glide_esite>  (98) 
-0.0729696

>  <r_i_glide_emodel>  (98) 
-32.1338

>  <r_i_glide_energy>  (98) 
-28.6642

>  <r_i_glide_einternal>  (98) 
8.17106

>  <r_i_glide_intrahb_reward>  (98) 
-0

>  <i_i_glide_confnum>  (98) 
3

>  <i_i_glide_posenum>  (98) 
34

>  <r_i_glide_eff_state_penalty>  (98) 
0

>  <ligand_id>  (98) 
30

>  <original_smiles>  (98) 
CC(CC=CC(C)C1CCC2C3CC(F)=C4CC(=O)CC(O)C4(C)C3C(O)CC12C)C(=O)O

>  <smiles>  (98) 
[H]OC1([H])C([H])([H])C2(C([H])([H])[H])C([H])(C([H])(C([H])=C([H])C([H])([H])C([H])(C(=O)[O-])C([H])([H])[H])C([H])([H])[H])C([H])([H])C([H])([H])C2([H])C2([H])C([H])([H])C(F)=C3C([H])([H])C(=O)C([H])([H])C([H])(O[H])C3(C([H])([H])[H])C12[H]

$$$$
30:0:2
     RDKit          3D

 71 74  0  0  1  0  0  0  0  0999 V2000
    3.0059   -1.3592   -4.2198 C   0  0  0  0  0  0  0  0  0  0  0  0
    3.2902   -2.7269   -3.5835 C   0  0  2  0  0  0  0  0  0  0  0  0
    2.4227   -3.0232   -2.3263 C   0  0  0  0  0  0  0  0  0  0  0  0
    3.0224   -2.6383   -0.9738 C   0  0  0  0  0  0  0  0  0  0  0  0
    4.0424   -3.2866   -0.4108 C   0  0  0  0  0  0  0  0  0  0  0  0
    4.7369   -2.9316    0.8908 C   0  0  2  0  0  0  0  0  0  0  0  0
    6.2227   -2.5521    0.6118 C   0  0  0  0  0  0  0  0  0  0  0  0
    4.4609   -4.0219    1.9777 C   0  0  2  0  0  0  0  0  0  0  0  0
    5.1191   -3.7086    3.3421 C   0  0  0  0  0  0  0  0  0  0  0  0
    5.6221   -5.0384    3.9109 C   0  0  0  0  0  0  0  0  0  0  0  0
    4.9201   -6.1455    3.1132 C   0  0  1  0  0  0  0  0  0  0  0  0
    3.6484   -6.7063    3.8114 C   0  0  1  0  0  0  0  0  0  0  0  0
    2.7491   -5.6846    4.5575 C   0  0  0  0  0  0  0  0  0  0  0  0
    1.4662   -6.3199    5.0491 C   0  0  0  0  0  0  0  0  0  0  0  0
    0.8068   -5.6562    6.0343 F   0  0  0  0  0  0  0  0  0  0  0  0
    0.9899   -7.5005    4.6488 C   0  0  0  0  0  0  0  0  0  0  0  0
   -0.1693   -8.1551    5.3520 C   0  0  0  0  0  0  0  0  0  0  0  0
    0.3391   -9.3585    6.1350 C   0  0  0  0  0  0  0  0  0  0  0  0
    0.0633   -9.5114    7.3048 O   0  0  0  0  0  0  0  0  0  0  0  0
    1.2138  -10.3366    5.3323 C   0  0  0  0  0  0  0  0  0  0  0  0
    2.2558   -9.5952    4.4628 C   0  0  1  0  0  0  0  0  0  0  0  0
    2.8868  -10.5544    3.6410 O   0  0  0  0  0  0  0  0  0  0  0  0
    1.6865   -8.4056    3.6168 C   0  0  1  0  0  0  0  0  0  0  0  0
    0.6551   -8.9505    2.5910 C   0  0  0  0  0  0  0  0  0  0  0  0
    2.8259   -7.6165    2.8730 C   0  0  1  0  0  0  0  0  0  0  0  0
    2.4238   -6.8360    1.5901 C   0  0  1  0  0  0  0  0  0  0  0  0
    1.4728   -5.8138    1.8057 O   0  0  0  0  0  0  0  0  0  0  0  0
    3.6690   -6.3091    0.8566 C   0  0  0  0  0  0  0  0  0  0  0  0
    4.7498   -5.5385    1.6885 C   0  0  1  0  0  0  0  0  0  0  0  0
    6.1011   -5.7185    0.9440 C   0  0  0  0  0  0  0  0  0  0  0  0
    4.7998   -2.8430   -3.3475 C   0  0  0  0  0  0  0  0  0  0  0  0
    5.3849   -1.9318   -2.7236 O   0  0  0  0  0  0  0  0  0  0  0  0
    5.3541   -3.8488   -3.8476 O   0  0  0  0  0  0  0  0  0  0  0  0
    3.6056   -1.2036   -5.1170 H   0  0  0  0  0  0  0  0  0  0  0  0
    3.2164   -0.5409   -3.5287 H   0  0  0  0  0  0  0  0  0  0  0  0
    1.9619   -1.2960   -4.5269 H   0  0  0  0  0  0  0  0  0  0  0  0
    3.0275   -3.4766   -4.3271 H   0  0  0  0  0  0  0  0  0  0  0  0
    1.4709   -2.5115   -2.4320 H   0  0  0  0  0  0  0  0  0  0  0  0
    2.1478   -4.0779   -2.2908 H   0  0  0  0  0  0  0  0  0  0  0  0
    2.6044   -1.7771   -0.4696 H   0  0  0  0  0  0  0  0  0  0  0  0
    4.4188   -4.1469   -0.9265 H   0  0  0  0  0  0  0  0  0  0  0  0
    4.2431   -2.0288    1.2384 H   0  0  0  0  0  0  0  0  0  0  0  0
    6.2823   -1.8326   -0.2192 H   0  0  0  0  0  0  0  0  0  0  0  0
    6.8576   -3.4355    0.3784 H   0  0  0  0  0  0  0  0  0  0  0  0
    6.6730   -2.0448    1.4648 H   0  0  0  0  0  0  0  0  0  0  0  0
    3.3922   -3.9531    2.1543 H   0  0  0  0  0  0  0  0  0  0  0  0
    5.9517   -3.0125    3.2578 H   0  0  0  0  0  0  0  0  0  0  0  0
    4.4095   -3.2229    4.0154 H   0  0  0  0  0  0  0  0  0  0  0  0
    6.6933   -5.1116    3.7335 H   0  0  0  0  0  0  0  0  0  0  0  0
    5.4878   -5.1187    4.9889 H   0  0  0  0  0  0  0  0  0  0  0  0
    5.6017   -6.9927    3.0276 H   0  0  0  0  0  0  0  0  0  0  0  0
    4.0486   -7.3439    4.5943 H   0  0  0  0  0  0  0  0  0  0  0  0
    3.2790   -5.2995    5.4248 H   0  0  0  0  0  0  0  0  0  0  0  0
    2.4955   -4.8217    3.9500 H   0  0  0  0  0  0  0  0  0  0  0  0
   -0.5731   -7.4426    6.0804 H   0  0  0  0  0  0  0  0  0  0  0  0
   -0.9637   -8.4657    4.6744 H   0  0  0  0  0  0  0  0  0  0  0  0
    1.7130  -11.0200    6.0229 H   0  0  0  0  0  0  0  0  0  0  0  0
    0.5516  -10.9523    4.7240 H   0  0  0  0  0  0  0  0  0  0  0  0
    3.0132   -9.2138    5.1500 H   0  0  0  0  0  0  0  0  0  0  0  0
    3.1646  -11.2799    4.1967 H   0  0  0  0  0  0  0  0  0  0  0  0
    1.1595   -9.4959    1.7921 H   0  0  0  0  0  0  0  0  0  0  0  0
    0.0736   -8.1523    2.1300 H   0  0  0  0  0  0  0  0  0  0  0  0
   -0.0620   -9.6431    3.0240 H   0  0  0  0  0  0  0  0  0  0  0  0
    3.5155   -8.3760    2.5049 H   0  0  0  0  0  0  0  0  0  0  0  0
    1.9409   -7.5119    0.8850 H   0  0  0  0  0  0  0  0  0  0  0  0
    1.8227   -5.2249    2.4737 H   0  0  0  0  0  0  0  0  0  0  0  0
    4.1643   -7.1927    0.4402 H   0  0  0  0  0  0  0  0  0  0  0  0
    3.3477   -5.7591   -0.0168 H   0  0  0  0  0  0  0  0  0  0  0  0
    6.3912   -6.7799    0.8902 H   0  0  0  0  0  0  0  0  0  0  0  0
    6.8975   -5.1526    1.4175 H   0  0  0  0  0  0  0  0  0  0  0  0
    6.0439   -5.3748   -0.0793 H   0  0  0  0  0  0  0  0  0  0  0  0
  1  2  1  0
  1 34  1  0
  1 35  1  0
  1 36  1  0
  2  3  1  0
  2 31  1  0
  2 37  1  6
  3  4  1  0
  3 38  1  0
  3 39  1  0
  4  5  2  3
  4 40  1  0
  5  6  1  0
  5 41  1  0
  6  7  1  0
  6  8  1  0
  6 42  1  1
  7 43  1  0
  7 44  1  0
  7 45  1  0
  8 29  1  0
  8  9  1  0
  8 46  1  1
  9 10  1  0
  9 47  1  0
  9 48  1  0
 10 11  1  0
 10 49  1  0
 10 50  1  0
 11 29  1  0
 11 12  1  0
 11 51  1  6
 12 25  1  0
 12 13  1  0
 12 52  1  1
 13 14  1  0
 13 53  1  0
 13 54  1  0
 14 15  1  0
 14 16  2  0
 16 23  1  0
 16 17  1  0
 17 18  1  0
 17 55  1  0
 17 56  1  0
 18 19  2  0
 18 20  1  0
 20 21  1  0
 20 57  1  0
 20 58  1  0
 21 22  1  0
 21 23  1  0
 21 59  1  1
 22 60  1  0
 23 24  1  6
 23 25  1  0
 24 61  1  0
 24 62  1  0
 24 63  1  0
 25 26  1  0
 25 64  1  6
 26 27  1  0
 26 28  1  0
 26 65  1  6
 27 66  1  0
 28 29  1  0
 28 67  1  0
 28 68  1  0
 29 30  1  6
 30 69  1  0
 30 70  1  0
 30 71  1  0
 31 32  2  0
 31 33  1  0
M  CHG  1  33  -1
M  END
>  <i_m_ct_stereo_status>  (99) 
1

>  <s_m_source_file>  (99) 
/var/tmp/pbs.5083858.sched01/tmpbb0qt8oz/40b9btvjb8.sdf

>  <i_m_source_file_index>  (99) 
3

>  <i_lp_mmshare_version>  (99) 
48012

>  <i_f3d_flags>  (99) 
0

>  <s_epik_input>  (99) 
Tz1DKFtPSF0pW0NASF0oW0NIM10pW0NIMl0vW0NIXT1bQ0hdL1tDQEhdKFtDSDNdKVtDQEhdKFtDSDJdW0NIMl0xKVtDQF0oW0NIM10pKFtDSDJdW0NAQEhdKFtDQEBIXTIzKVtPSF0pW0NAQEhdMVtDQEhdMltDSDJdQyhGKT1DKFtDQEBdMzRbQ0gzXSlbQ0gyXUMoPU8pW0NIMl1bQ0BIXTRbT0hd

>  <s_epik_cmdline>  (99) 
J2VwaWtfcHl0aG9uJywgJy1waHQnLCAnMi4wJywgJy1waCcsICc3LjAnLCAnLXRuJywgJzgnLCAnLW1hJywgJzIwMCcsICctaW1hZScsICc8aW5maWxlLm1hZT4nLCAnLW9tYWUnLCAnPG91dGZpbGUubWFlPic=

>  <r_lp_tautomer_probability>  (99) 
0.99995

>  <r_epik_Ionization_Penalty>  (99) 
0.00214345

>  <r_epik_Ionization_Penalty_Charging>  (99) 
0.00214303

>  <r_epik_Ionization_Penalty_Neutral>  (99) 
4.26391e-07

>  <r_epik_State_Penalty>  (99) 
0.00147075

>  <r_epik_Charging_Adjusted_Penalty>  (99) 
0.00361378

>  <i_epik_Tot_Q>  (99) 
-1

>  <i_epik_Tot_abs_Q>  (99) 
1

>  <s_lp_Force_Field>  (99) 
OPLS3e

>  <r_lp_Energy>  (99) 
48.6715

>  <b_lp_Chiralities_Consistent>  (99) 
1

>  <s_lp_Variant>  (99) 
30:0-1

>  <s_i_glide_gridfile>  (99) 
pfpi4k_grid

>  <i_i_glide_lignum>  (99) 
3

>  <i_i_glide_rotatable_bonds>  (99) 
7

>  <r_i_docking_score>  (99) 
-2.5553

>  <r_i_glide_ligand_efficiency>  (99) 
-0.0774332

>  <r_i_glide_ligand_efficiency_sa>  (99) 
-0.24837

>  <r_i_glide_ligand_efficiency_ln>  (99) 
-0.568285

>  <r_i_glide_gscore>  (99) 
-2.5553

>  <r_i_glide_lipo>  (99) 
-0.625867

>  <r_i_glide_hbond>  (99) 
-0.0636274

>  <r_i_glide_metal>  (99) 
-0

>  <r_i_glide_rewards>  (99) 
-0.446479

>  <r_i_glide_evdw>  (99) 
-23.9881

>  <r_i_glide_ecoul>  (99) 
-3.56074

>  <r_i_glide_erotb>  (99) 
0.378057

>  <r_i_glide_esite>  (99) 
-0.0638639

>  <r_i_glide_emodel>  (99) 
-28.8748

>  <r_i_glide_energy>  (99) 
-27.5488

>  <r_i_glide_einternal>  (99) 
11.0429

>  <r_i_glide_intrahb_reward>  (99) 
-0

>  <i_i_glide_confnum>  (99) 
3

>  <i_i_glide_posenum>  (99) 
27

>  <r_i_glide_eff_state_penalty>  (99) 
0

>  <ligand_id>  (99) 
30

>  <original_smiles>  (99) 
CC(CC=CC(C)C1CCC2C3CC(F)=C4CC(=O)CC(O)C4(C)C3C(O)CC12C)C(=O)O

>  <smiles>  (99) 
[H]OC1([H])C([H])([H])C2(C([H])([H])[H])C([H])(C([H])(C([H])=C([H])C([H])([H])C([H])(C(=O)[O-])C([H])([H])[H])C([H])([H])[H])C([H])([H])C([H])([H])C2([H])C2([H])C([H])([H])C(F)=C3C([H])([H])C(=O)C([H])([H])C([H])(O[H])C3(C([H])([H])[H])C12[H]

$$$$
30:1:0
     RDKit          3D

 71 74  0  0  1  0  0  0  0  0999 V2000
   -2.5830    3.1501    5.2446 C   0  0  0  0  0  0  0  0  0  0  0  0
   -2.7672    2.7425    3.7629 C   0  0  2  0  0  0  0  0  0  0  0  0
   -1.6079    1.8606    3.2424 C   0  0  0  0  0  0  0  0  0  0  0  0
   -0.2564    2.5563    3.2936 C   0  0  0  0  0  0  0  0  0  0  0  0
    0.7529    2.3403    4.1527 C   0  0  0  0  0  0  0  0  0  0  0  0
    0.8398    1.3456    5.3040 C   0  0  2  0  0  0  0  0  0  0  0  0
    1.2246    2.0954    6.6082 C   0  0  0  0  0  0  0  0  0  0  0  0
    1.6981    0.0768    4.9390 C   0  0  2  0  0  0  0  0  0  0  0  0
    1.9512   -0.9000    6.1199 C   0  0  0  0  0  0  0  0  0  0  0  0
    3.3827   -1.4238    5.9730 C   0  0  0  0  0  0  0  0  0  0  0  0
    3.8158   -1.1039    4.5341 C   0  0  1  0  0  0  0  0  0  0  0  0
    3.6391   -2.3106    3.5607 C   0  0  1  0  0  0  0  0  0  0  0  0
    2.3780   -3.1880    3.7457 C   0  0  0  0  0  0  0  0  0  0  0  0
    2.2058   -4.2174    2.6477 C   0  0  0  0  0  0  0  0  0  0  0  0
    1.4087   -5.2671    2.9016 F   0  0  0  0  0  0  0  0  0  0  0  0
    2.8827   -4.2017    1.4754 C   0  0  0  0  0  0  0  0  0  0  0  0
    2.8320   -5.3891    0.5231 C   0  0  0  0  0  0  0  0  0  0  0  0
    4.2098   -6.0477    0.5417 C   0  0  0  0  0  0  0  0  0  0  0  0
    4.3427   -7.2610    0.6871 O   0  0  0  0  0  0  0  0  0  0  0  0
    5.4076   -5.1262    0.3461 C   0  0  0  0  0  0  0  0  0  0  0  0
    5.2904   -3.8327    1.1895 C   0  0  1  0  0  0  0  0  0  0  0  0
    6.3497   -2.9651    0.8082 O   0  0  0  0  0  0  0  0  0  0  0  0
    3.8966   -3.1180    1.0984 C   0  0  1  0  0  0  0  0  0  0  0  0
    3.6760   -2.6332   -0.3634 C   0  0  0  0  0  0  0  0  0  0  0  0
    3.8219   -1.8865    2.0878 C   0  0  1  0  0  0  0  0  0  0  0  0
    2.8151   -0.7476    1.7343 C   0  0  1  0  0  0  0  0  0  0  0  0
    1.4592   -1.1538    1.6796 O   0  0  0  0  0  0  0  0  0  0  0  0
    3.0139    0.4744    2.6617 C   0  0  0  0  0  0  0  0  0  0  0  0
    3.0814    0.2255    4.2030 C   0  0  1  0  0  0  0  0  0  0  0  0
    3.9367    1.3716    4.8126 C   0  0  0  0  0  0  0  0  0  0  0  0
   -2.9737    3.9722    2.8849 C   0  0  0  0  0  0  0  0  0  0  0  0
   -3.9784    3.9749    2.1378 O   0  0  0  0  0  0  0  0  0  0  0  0
   -2.1992    4.9406    3.0631 O   0  0  0  0  0  0  0  0  0  0  0  0
   -3.4249    3.7341    5.6057 H   0  0  0  0  0  0  0  0  0  0  0  0
   -1.6882    3.7502    5.4096 H   0  0  0  0  0  0  0  0  0  0  0  0
   -2.5170    2.2646    5.8819 H   0  0  0  0  0  0  0  0  0  0  0  0
   -3.6885    2.1770    3.6843 H   0  0  0  0  0  0  0  0  0  0  0  0
   -1.5771    0.9178    3.7964 H   0  0  0  0  0  0  0  0  0  0  0  0
   -1.7862    1.5912    2.1954 H   0  0  0  0  0  0  0  0  0  0  0  0
   -0.1168    3.3313    2.5549 H   0  0  0  0  0  0  0  0  0  0  0  0
    1.6065    2.9800    3.9974 H   0  0  0  0  0  0  0  0  0  0  0  0
   -0.1689    0.9706    5.4745 H   0  0  0  0  0  0  0  0  0  0  0  0
    0.6352    3.0083    6.7039 H   0  0  0  0  0  0  0  0  0  0  0  0
    2.2727    2.3896    6.6436 H   0  0  0  0  0  0  0  0  0  0  0  0
    1.0125    1.5019    7.4933 H   0  0  0  0  0  0  0  0  0  0  0  0
    1.0651   -0.4799    4.2385 H   0  0  0  0  0  0  0  0  0  0  0  0
    1.8803   -0.4393    7.1028 H   0  0  0  0  0  0  0  0  0  0  0  0
    1.2300   -1.7184    6.1123 H   0  0  0  0  0  0  0  0  0  0  0  0
    4.0228   -0.8662    6.6591 H   0  0  0  0  0  0  0  0  0  0  0  0
    3.4924   -2.4715    6.2482 H   0  0  0  0  0  0  0  0  0  0  0  0
    4.8859   -0.8991    4.5358 H   0  0  0  0  0  0  0  0  0  0  0  0
    4.4722   -2.9682    3.8073 H   0  0  0  0  0  0  0  0  0  0  0  0
    2.4403   -3.7289    4.6931 H   0  0  0  0  0  0  0  0  0  0  0  0
    1.4643   -2.6000    3.7888 H   0  0  0  0  0  0  0  0  0  0  0  0
    2.0753   -6.1097    0.8148 H   0  0  0  0  0  0  0  0  0  0  0  0
    2.5912   -5.0616   -0.4855 H   0  0  0  0  0  0  0  0  0  0  0  0
    6.3208   -5.6685    0.6067 H   0  0  0  0  0  0  0  0  0  0  0  0
    5.4846   -4.8976   -0.7178 H   0  0  0  0  0  0  0  0  0  0  0  0
    5.4770   -4.1269    2.2248 H   0  0  0  0  0  0  0  0  0  0  0  0
    6.3843   -2.2584    1.4160 H   0  0  0  0  0  0  0  0  0  0  0  0
    4.3210   -1.7866   -0.6020 H   0  0  0  0  0  0  0  0  0  0  0  0
    2.6439   -2.3245   -0.5295 H   0  0  0  0  0  0  0  0  0  0  0  0
    3.8917   -3.4012   -1.1050 H   0  0  0  0  0  0  0  0  0  0  0  0
    4.7913   -1.3912    2.0346 H   0  0  0  0  0  0  0  0  0  0  0  0
    3.0213   -0.3785    0.7283 H   0  0  0  0  0  0  0  0  0  0  0  0
    1.1497   -1.0552    0.7587 H   0  0  0  0  0  0  0  0  0  0  0  0
    3.9697    0.9103    2.3605 H   0  0  0  0  0  0  0  0  0  0  0  0
    2.2816    1.2315    2.3930 H   0  0  0  0  0  0  0  0  0  0  0  0
    4.9477    1.3714    4.3986 H   0  0  0  0  0  0  0  0  0  0  0  0
    4.0308    1.2600    5.8900 H   0  0  0  0  0  0  0  0  0  0  0  0
    3.5248    2.3565    4.6068 H   0  0  0  0  0  0  0  0  0  0  0  0
  1  2  1  0
  1 34  1  0
  1 35  1  0
  1 36  1  0
  2  3  1  0
  2 31  1  0
  2 37  1  1
  3  4  1  0
  3 38  1  0
  3 39  1  0
  4  5  2  3
  4 40  1  0
  5  6  1  0
  5 41  1  0
  6  7  1  0
  6  8  1  0
  6 42  1  1
  7 43  1  0
  7 44  1  0
  7 45  1  0
  8 29  1  0
  8  9  1  0
  8 46  1  6
  9 10  1  0
  9 47  1  0
  9 48  1  0
 10 11  1  0
 10 49  1  0
 10 50  1  0
 11 29  1  0
 11 12  1  0
 11 51  1  1
 12 25  1  0
 12 13  1  0
 12 52  1  1
 13 14  1  0
 13 53  1  0
 13 54  1  0
 14 15  1  0
 14 16  2  0
 16 23  1  0
 16 17  1  0
 17 18  1  0
 17 55  1  0
 17 56  1  0
 18 19  2  0
 18 20  1  0
 20 21  1  0
 20 57  1  0
 20 58  1  0
 21 22  1  0
 21 23  1  0
 21 59  1  1
 22 60  1  0
 23 24  1  6
 23 25  1  0
 24 61  1  0
 24 62  1  0
 24 63  1  0
 25 26  1  0
 25 64  1  1
 26 27  1  0
 26 28  1  0
 26 65  1  6
 27 66  1  0
 28 29  1  0
 28 67  1  0
 28 68  1  0
 29 30  1  1
 30 69  1  0
 30 70  1  0
 30 71  1  0
 31 32  2  0
 31 33  1  0
M  CHG  1  33  -1
M  END
>  <i_m_ct_stereo_status>  (100) 
1

>  <s_m_source_file>  (100) 
/var/tmp/pbs.5083858.sched01/tmpbb0qt8oz/40b9btvjb8.sdf

>  <i_m_source_file_index>  (100) 
4

>  <i_lp_mmshare_version>  (100) 
48012

>  <i_f3d_flags>  (100) 
0

>  <s_epik_input>  (100) 
Tz1DKFtPSF0pW0NASF0oW0NIM10pW0NIMl0vW0NIXT1bQ0hdL1tDQEhdKFtDSDNdKVtDQEhdKFtDSDJdW0NIMl0xKVtDQF0oW0NIM10pKFtDSDJdW0NAQEhdKFtDQEBIXTIzKVtPSF0pW0NAQEhdMVtDQEhdMltDSDJdQyhGKT1DKFtDQEBdMzRbQ0gzXSlbQ0gyXUMoPU8pW0NIMl1bQ0BIXTRbT0hd

>  <s_epik_cmdline>  (100) 
J2VwaWtfcHl0aG9uJywgJy1waHQnLCAnMi4wJywgJy1waCcsICc3LjAnLCAnLXRuJywgJzgnLCAnLW1hJywgJzIwMCcsICctaW1hZScsICc8aW5maWxlLm1hZT4nLCAnLW9tYWUnLCAnPG91dGZpbGUubWFlPic=

>  <r_lp_tautomer_probability>  (100) 
0.99995

>  <r_epik_Ionization_Penalty>  (100) 
0.00214345

>  <r_epik_Ionization_Penalty_Charging>  (100) 
0.00214303

>  <r_epik_Ionization_Penalty_Neutral>  (100) 
4.26391e-07

>  <r_epik_State_Penalty>  (100) 
0.00147075

>  <r_epik_Charging_Adjusted_Penalty>  (100) 
0.00361378

>  <i_epik_Tot_Q>  (100) 
-1

>  <i_epik_Tot_abs_Q>  (100) 
1

>  <s_lp_Force_Field>  (100) 
OPLS3e

>  <r_lp_Energy>  (100) 
49.4352

>  <b_lp_Chiralities_Consistent>  (100) 
1

>  <s_lp_Variant>  (100) 
30:0-2

>  <s_i_glide_gridfile>  (100) 
pfpi4k_grid

>  <i_i_glide_lignum>  (100) 
4

>  <i_i_glide_rotatable_bonds>  (100) 
7

>  <r_i_docking_score>  (100) 
-2.98188

>  <r_i_glide_ligand_efficiency>  (100) 
-0.09036

>  <r_i_glide_ligand_efficiency_sa>  (100) 
-0.289833

>  <r_i_glide_ligand_efficiency_ln>  (100) 
-0.663155

>  <r_i_glide_gscore>  (100) 
-2.98188

>  <r_i_glide_lipo>  (100) 
-0.187319

>  <r_i_glide_hbond>  (100) 
-0.36

>  <r_i_glide_metal>  (100) 
-0

>  <r_i_glide_rewards>  (100) 
-0.410245

>  <r_i_glide_evdw>  (100) 
-18.5786

>  <r_i_glide_ecoul>  (100) 
-9.21533

>  <r_i_glide_erotb>  (100) 
0.378057

>  <r_i_glide_esite>  (100) 
-0.0911452

>  <r_i_glide_emodel>  (100) 
-30.0965

>  <r_i_glide_energy>  (100) 
-27.7939

>  <r_i_glide_einternal>  (100) 
8.43928

>  <r_i_glide_intrahb_reward>  (100) 
-0

>  <i_i_glide_confnum>  (100) 
1

>  <i_i_glide_posenum>  (100) 
18

>  <r_i_glide_eff_state_penalty>  (100) 
0

>  <ligand_id>  (100) 
30

>  <original_smiles>  (100) 
CC(CC=CC(C)C1CCC2C3CC(F)=C4CC(=O)CC(O)C4(C)C3C(O)CC12C)C(=O)O

>  <smiles>  (100) 
[H]OC1([H])C([H])([H])C2(C([H])([H])[H])C([H])(C([H])(C([H])=C([H])C([H])([H])C([H])(C(=O)[O-])C([H])([H])[H])C([H])([H])[H])C([H])([H])C([H])([H])C2([H])C2([H])C([H])([H])C(F)=C3C([H])([H])C(=O)C([H])([H])C([H])(O[H])C3(C([H])([H])[H])C12[H]

$$$$
30:1:1
     RDKit          3D

 71 74  0  0  1  0  0  0  0  0999 V2000
    2.4595   -2.7349   -3.6458 C   0  0  0  0  0  0  0  0  0  0  0  0
    3.8771   -2.1583   -3.8093 C   0  0  2  0  0  0  0  0  0  0  0  0
    4.7458   -2.4114   -2.5613 C   0  0  0  0  0  0  0  0  0  0  0  0
    4.9154   -3.8724   -2.2695 C   0  0  0  0  0  0  0  0  0  0  0  0
    5.2496   -4.4181   -1.0701 C   0  0  0  0  0  0  0  0  0  0  0  0
    5.4941   -3.6938    0.2508 C   0  0  2  0  0  0  0  0  0  0  0  0
    6.9595   -3.1909    0.2573 C   0  0  0  0  0  0  0  0  0  0  0  0
    5.0116   -4.5380    1.5024 C   0  0  2  0  0  0  0  0  0  0  0  0
    5.3680   -3.8912    2.8683 C   0  0  0  0  0  0  0  0  0  0  0  0
    5.7972   -5.0199    3.8170 C   0  0  0  0  0  0  0  0  0  0  0  0
    5.2988   -6.3225    3.1816 C   0  0  1  0  0  0  0  0  0  0  0  0
    3.9364   -6.8024    3.7719 C   0  0  1  0  0  0  0  0  0  0  0  0
    2.8793   -5.7156    4.0772 C   0  0  0  0  0  0  0  0  0  0  0  0
    1.5262   -6.2865    4.4616 C   0  0  0  0  0  0  0  0  0  0  0  0
    0.6817   -5.4922    5.1189 F   0  0  0  0  0  0  0  0  0  0  0  0
    1.1672   -7.5864    4.2690 C   0  0  0  0  0  0  0  0  0  0  0  0
   -0.1097   -8.1405    4.8845 C   0  0  0  0  0  0  0  0  0  0  0  0
    0.3158   -9.1105    5.9770 C   0  0  0  0  0  0  0  0  0  0  0  0
   -0.1509   -9.0440    7.1238 O   0  0  0  0  0  0  0  0  0  0  0  0
    1.3353  -10.1726    5.5955 C   0  0  0  0  0  0  0  0  0  0  0  0
    2.5135   -9.5689    4.7943 C   0  0  1  0  0  0  0  0  0  0  0  0
    3.3119  -10.6480    4.3519 O   0  0  0  0  0  0  0  0  0  0  0  0
    2.0778   -8.6273    3.6193 C   0  0  1  0  0  0  0  0  0  0  0  0
    1.2945   -9.4702    2.5670 C   0  0  0  0  0  0  0  0  0  0  0  0
    3.3300   -7.9527    2.9434 C   0  0  1  0  0  0  0  0  0  0  0  0
    3.1574   -7.5104    1.4763 C   0  0  1  0  0  0  0  0  0  0  0  0
    2.1917   -6.4955    1.2515 O   0  0  0  0  0  0  0  0  0  0  0  0
    4.5049   -7.1050    0.8555 C   0  0  0  0  0  0  0  0  0  0  0  0
    5.3827   -6.0679    1.6495 C   0  0  1  0  0  0  0  0  0  0  0  0
    6.8602   -6.3157    1.2389 C   0  0  0  0  0  0  0  0  0  0  0  0
    3.8060   -0.6453   -4.1149 C   0  0  0  0  0  0  0  0  0  0  0  0
    3.4255   -0.2990   -5.2614 O   0  0  0  0  0  0  0  0  0  0  0  0
    4.2024    0.1487   -3.2346 O   0  0  0  0  0  0  0  0  0  0  0  0
    1.8364   -2.5427   -4.5137 H   0  0  0  0  0  0  0  0  0  0  0  0
    1.9593   -2.2957   -2.7830 H   0  0  0  0  0  0  0  0  0  0  0  0
    2.4767   -3.8170   -3.5165 H   0  0  0  0  0  0  0  0  0  0  0  0
    4.3424   -2.6284   -4.6758 H   0  0  0  0  0  0  0  0  0  0  0  0
    5.7514   -2.0277   -2.7192 H   0  0  0  0  0  0  0  0  0  0  0  0
    4.3224   -1.8960   -1.7041 H   0  0  0  0  0  0  0  0  0  0  0  0
    4.7985   -4.5507   -3.0946 H   0  0  0  0  0  0  0  0  0  0  0  0
    5.3833   -5.4736   -1.1113 H   0  0  0  0  0  0  0  0  0  0  0  0
    4.8648   -2.8037    0.2626 H   0  0  0  0  0  0  0  0  0  0  0  0
    7.1941   -2.7108   -0.6983 H   0  0  0  0  0  0  0  0  0  0  0  0
    7.6952   -3.9864    0.3776 H   0  0  0  0  0  0  0  0  0  0  0  0
    7.1419   -2.4452    1.0261 H   0  0  0  0  0  0  0  0  0  0  0  0
    3.9213   -4.5129    1.4587 H   0  0  0  0  0  0  0  0  0  0  0  0
    6.1712   -3.1619    2.8134 H   0  0  0  0  0  0  0  0  0  0  0  0
    4.5221   -3.3398    3.2830 H   0  0  0  0  0  0  0  0  0  0  0  0
    6.8859   -5.0559    3.8672 H   0  0  0  0  0  0  0  0  0  0  0  0
    5.4679   -4.8730    4.8481 H   0  0  0  0  0  0  0  0  0  0  0  0
    6.0074   -7.1145    3.4289 H   0  0  0  0  0  0  0  0  0  0  0  0
    4.1991   -7.2233    4.7467 H   0  0  0  0  0  0  0  0  0  0  0  0
    3.2190   -5.0994    4.9114 H   0  0  0  0  0  0  0  0  0  0  0  0
    2.7258   -5.0353    3.2424 H   0  0  0  0  0  0  0  0  0  0  0  0
   -0.7335   -7.3525    5.2920 H   0  0  0  0  0  0  0  0  0  0  0  0
   -0.7027   -8.6651    4.1367 H   0  0  0  0  0  0  0  0  0  0  0  0
    1.7254  -10.6505    6.4899 H   0  0  0  0  0  0  0  0  0  0  0  0
    0.8304  -10.9566    5.0294 H   0  0  0  0  0  0  0  0  0  0  0  0
    3.1111   -8.9939    5.5052 H   0  0  0  0  0  0  0  0  0  0  0  0
    3.3741  -11.2725    5.0582 H   0  0  0  0  0  0  0  0  0  0  0  0
    1.9603  -10.1402    2.0201 H   0  0  0  0  0  0  0  0  0  0  0  0
    0.7925   -8.8345    1.8372 H   0  0  0  0  0  0  0  0  0  0  0  0
    0.5251  -10.1031    3.0046 H   0  0  0  0  0  0  0  0  0  0  0  0
    4.0941   -8.7283    2.8903 H   0  0  0  0  0  0  0  0  0  0  0  0
    2.8405   -8.3740    0.9034 H   0  0  0  0  0  0  0  0  0  0  0  0
    2.2642   -6.2182    0.3508 H   0  0  0  0  0  0  0  0  0  0  0  0
    5.0932   -8.0333    0.7977 H   0  0  0  0  0  0  0  0  0  0  0  0
    4.2878   -6.8365   -0.1675 H   0  0  0  0  0  0  0  0  0  0  0  0
    7.1885   -7.3366    1.4501 H   0  0  0  0  0  0  0  0  0  0  0  0
    7.5414   -5.6545    1.7732 H   0  0  0  0  0  0  0  0  0  0  0  0
    7.0201   -6.1612    0.1731 H   0  0  0  0  0  0  0  0  0  0  0  0
  1  2  1  0
  1 34  1  0
  1 35  1  0
  1 36  1  0
  2  3  1  0
  2 31  1  0
  2 37  1  6
  3  4  1  0
  3 38  1  0
  3 39  1  0
  4  5  2  3
  4 40  1  0
  5  6  1  0
  5 41  1  0
  6  7  1  0
  6  8  1  0
  6 42  1  6
  7 43  1  0
  7 44  1  0
  7 45  1  0
  8 29  1  0
  8  9  1  0
  8 46  1  6
  9 10  1  0
  9 47  1  0
  9 48  1  0
 10 11  1  0
 10 49  1  0
 10 50  1  0
 11 29  1  0
 11 12  1  0
 11 51  1  6
 12 25  1  0
 12 13  1  0
 12 52  1  1
 13 14  1  0
 13 53  1  0
 13 54  1  0
 14 15  1  0
 14 16  2  0
 16 23  1  0
 16 17  1  0
 17 18  1  0
 17 55  1  0
 17 56  1  0
 18 19  2  0
 18 20  1  0
 20 21  1  0
 20 57  1  0
 20 58  1  0
 21 22  1  0
 21 23  1  0
 21 59  1  1
 22 60  1  0
 23 24  1  6
 23 25  1  0
 24 61  1  0
 24 62  1  0
 24 63  1  0
 25 26  1  0
 25 64  1  6
 26 27  1  0
 26 28  1  0
 26 65  1  6
 27 66  1  0
 28 29  1  0
 28 67  1  0
 28 68  1  0
 29 30  1  6
 30 69  1  0
 30 70  1  0
 30 71  1  0
 31 32  2  0
 31 33  1  0
M  CHG  1  33  -1
M  END
>  <i_m_ct_stereo_status>  (101) 
1

>  <s_m_source_file>  (101) 
/var/tmp/pbs.5083858.sched01/tmpbb0qt8oz/40b9btvjb8.sdf

>  <i_m_source_file_index>  (101) 
4

>  <i_lp_mmshare_version>  (101) 
48012

>  <i_f3d_flags>  (101) 
0

>  <s_epik_input>  (101) 
Tz1DKFtPSF0pW0NASF0oW0NIM10pW0NIMl0vW0NIXT1bQ0hdL1tDQEhdKFtDSDNdKVtDQEhdKFtDSDJdW0NIMl0xKVtDQF0oW0NIM10pKFtDSDJdW0NAQEhdKFtDQEBIXTIzKVtPSF0pW0NAQEhdMVtDQEhdMltDSDJdQyhGKT1DKFtDQEBdMzRbQ0gzXSlbQ0gyXUMoPU8pW0NIMl1bQ0BIXTRbT0hd

>  <s_epik_cmdline>  (101) 
J2VwaWtfcHl0aG9uJywgJy1waHQnLCAnMi4wJywgJy1waCcsICc3LjAnLCAnLXRuJywgJzgnLCAnLW1hJywgJzIwMCcsICctaW1hZScsICc8aW5maWxlLm1hZT4nLCAnLW9tYWUnLCAnPG91dGZpbGUubWFlPic=

>  <r_lp_tautomer_probability>  (101) 
0.99995

>  <r_epik_Ionization_Penalty>  (101) 
0.00214345

>  <r_epik_Ionization_Penalty_Charging>  (101) 
0.00214303

>  <r_epik_Ionization_Penalty_Neutral>  (101) 
4.26391e-07

>  <r_epik_State_Penalty>  (101) 
0.00147075

>  <r_epik_Charging_Adjusted_Penalty>  (101) 
0.00361378

>  <i_epik_Tot_Q>  (101) 
-1

>  <i_epik_Tot_abs_Q>  (101) 
1

>  <s_lp_Force_Field>  (101) 
OPLS3e

>  <r_lp_Energy>  (101) 
49.4352

>  <b_lp_Chiralities_Consistent>  (101) 
1

>  <s_lp_Variant>  (101) 
30:0-2

>  <s_i_glide_gridfile>  (101) 
pfpi4k_grid

>  <i_i_glide_lignum>  (101) 
4

>  <i_i_glide_rotatable_bonds>  (101) 
7

>  <r_i_docking_score>  (101) 
-2.96331

>  <r_i_glide_ligand_efficiency>  (101) 
-0.0897974

>  <r_i_glide_ligand_efficiency_sa>  (101) 
-0.288028

>  <r_i_glide_ligand_efficiency_ln>  (101) 
-0.659026

>  <r_i_glide_gscore>  (101) 
-2.96331

>  <r_i_glide_lipo>  (101) 
-1.13395

>  <r_i_glide_hbond>  (101) 
-0.0111013

>  <r_i_glide_metal>  (101) 
-0

>  <r_i_glide_rewards>  (101) 
-0.553887

>  <r_i_glide_evdw>  (101) 
-28.361

>  <r_i_glide_ecoul>  (101) 
-1.08312

>  <r_i_glide_erotb>  (101) 
0.378057

>  <r_i_glide_esite>  (101) 
-0.0619185

>  <r_i_glide_emodel>  (101) 
-30.8798

>  <r_i_glide_energy>  (101) 
-29.4441

>  <r_i_glide_einternal>  (101) 
9.80687

>  <r_i_glide_intrahb_reward>  (101) 
-0

>  <i_i_glide_confnum>  (101) 
3

>  <i_i_glide_posenum>  (101) 
28

>  <r_i_glide_eff_state_penalty>  (101) 
0

>  <ligand_id>  (101) 
30

>  <original_smiles>  (101) 
CC(CC=CC(C)C1CCC2C3CC(F)=C4CC(=O)CC(O)C4(C)C3C(O)CC12C)C(=O)O

>  <smiles>  (101) 
[H]OC1([H])C([H])([H])C2(C([H])([H])[H])C([H])(C([H])(C([H])=C([H])C([H])([H])C([H])(C(=O)[O-])C([H])([H])[H])C([H])([H])[H])C([H])([H])C([H])([H])C2([H])C2([H])C([H])([H])C(F)=C3C([H])([H])C(=O)C([H])([H])C([H])(O[H])C3(C([H])([H])[H])C12[H]

$$$$
30:1:2
     RDKit          3D

 71 74  0  0  1  0  0  0  0  0999 V2000
   -3.9146    3.3439    8.8085 C   0  0  0  0  0  0  0  0  0  0  0  0
   -2.5992    3.7167    8.0984 C   0  0  2  0  0  0  0  0  0  0  0  0
   -1.6341    2.5124    7.9599 C   0  0  0  0  0  0  0  0  0  0  0  0
   -2.0725    1.4951    6.9158 C   0  0  0  0  0  0  0  0  0  0  0  0
   -1.4421    1.1799    5.7629 C   0  0  0  0  0  0  0  0  0  0  0  0
   -0.1559    1.7842    5.1946 C   0  0  2  0  0  0  0  0  0  0  0  0
   -0.5435    2.6471    3.9809 C   0  0  0  0  0  0  0  0  0  0  0  0
    0.9059    0.6793    4.8869 C   0  0  2  0  0  0  0  0  0  0  0  0
    1.2447   -0.1652    6.1408 C   0  0  0  0  0  0  0  0  0  0  0  0
    2.7563   -0.4415    6.1287 C   0  0  0  0  0  0  0  0  0  0  0  0
    3.2433   -0.0598    4.7268 C   0  0  1  0  0  0  0  0  0  0  0  0
    3.3738   -1.2803    3.7573 C   0  0  1  0  0  0  0  0  0  0  0  0
    2.2794   -2.3717    3.8417 C   0  0  0  0  0  0  0  0  0  0  0  0
    2.3876   -3.4121    2.7443 C   0  0  0  0  0  0  0  0  0  0  0  0
    1.7693   -4.5878    2.9459 F   0  0  0  0  0  0  0  0  0  0  0  0
    3.1435   -3.2722    1.6316 C   0  0  0  0  0  0  0  0  0  0  0  0
    3.3827   -4.4485    0.6930 C   0  0  0  0  0  0  0  0  0  0  0  0
    4.8455   -4.8576    0.8311 C   0  0  0  0  0  0  0  0  0  0  0  0
    5.1794   -6.0292    0.9970 O   0  0  0  0  0  0  0  0  0  0  0  0
    5.8806   -3.7370    0.7309 C   0  0  0  0  0  0  0  0  0  0  0  0
    5.4681   -2.4835    1.5485 C   0  0  1  0  0  0  0  0  0  0  0  0
    6.3842   -1.4529    1.2273 O   0  0  0  0  0  0  0  0  0  0  0  0
    3.9847   -2.0229    1.3329 C   0  0  1  0  0  0  0  0  0  0  0  0
    3.8188   -1.5861   -0.1476 C   0  0  0  0  0  0  0  0  0  0  0  0
    3.6056   -0.8286    2.2977 C   0  0  1  0  0  0  0  0  0  0  0  0
    2.4464    0.1140    1.8519 C   0  0  1  0  0  0  0  0  0  0  0  0
    1.1878   -0.5171    1.7055 O   0  0  0  0  0  0  0  0  0  0  0  0
    2.3465    1.3462    2.7693 C   0  0  0  0  0  0  0  0  0  0  0  0
    2.2961    1.0998    4.3058 C   0  0  1  0  0  0  0  0  0  0  0  0
    2.7946    2.4055    4.9914 C   0  0  0  0  0  0  0  0  0  0  0  0
   -1.9408    4.9029    8.8297 C   0  0  0  0  0  0  0  0  0  0  0  0
   -2.5873    5.9746    8.8581 O   0  0  0  0  0  0  0  0  0  0  0  0
   -0.8042    4.7592    9.3222 O   0  0  0  0  0  0  0  0  0  0  0  0
   -4.5829    4.2007    8.8801 H   0  0  0  0  0  0  0  0  0  0  0  0
   -3.7278    2.9855    9.8225 H   0  0  0  0  0  0  0  0  0  0  0  0
   -4.4556    2.5717    8.2645 H   0  0  0  0  0  0  0  0  0  0  0  0
   -2.8366    4.0910    7.1033 H   0  0  0  0  0  0  0  0  0  0  0  0
   -0.6308    2.8587    7.7355 H   0  0  0  0  0  0  0  0  0  0  0  0
   -1.5608    2.0049    8.9218 H   0  0  0  0  0  0  0  0  0  0  0  0
   -2.9951    0.9831    7.1376 H   0  0  0  0  0  0  0  0  0  0  0  0
   -1.8900    0.4199    5.1374 H   0  0  0  0  0  0  0  0  0  0  0  0
    0.2748    2.4585    5.9278 H   0  0  0  0  0  0  0  0  0  0  0  0
   -1.3892    3.2940    4.2174 H   0  0  0  0  0  0  0  0  0  0  0  0
   -0.8216    2.0372    3.1208 H   0  0  0  0  0  0  0  0  0  0  0  0
    0.2648    3.3094    3.6761 H   0  0  0  0  0  0  0  0  0  0  0  0
    0.4444    0.0115    4.1636 H   0  0  0  0  0  0  0  0  0  0  0  0
    0.9803    0.3491    7.0665 H   0  0  0  0  0  0  0  0  0  0  0  0
    0.6855   -1.1007    6.1276 H   0  0  0  0  0  0  0  0  0  0  0  0
    3.2375    0.2095    6.8609 H   0  0  0  0  0  0  0  0  0  0  0  0
    3.0139   -1.4590    6.4181 H   0  0  0  0  0  0  0  0  0  0  0  0
    4.2535    0.3427    4.8135 H   0  0  0  0  0  0  0  0  0  0  0  0
    4.2870   -1.7798    4.0792 H   0  0  0  0  0  0  0  0  0  0  0  0
    2.3553   -2.8954    4.7959 H   0  0  0  0  0  0  0  0  0  0  0  0
    1.2752   -1.9568    3.7994 H   0  0  0  0  0  0  0  0  0  0  0  0
    2.7412   -5.2932    0.9314 H   0  0  0  0  0  0  0  0  0  0  0  0
    3.1741   -4.1746   -0.3371 H   0  0  0  0  0  0  0  0  0  0  0  0
    6.8455   -4.1076    1.0752 H   0  0  0  0  0  0  0  0  0  0  0  0
    6.0070   -3.4919   -0.3225 H   0  0  0  0  0  0  0  0  0  0  0  0
    5.6180   -2.7437    2.5984 H   0  0  0  0  0  0  0  0  0  0  0  0
    6.3208   -0.7768    1.8867 H   0  0  0  0  0  0  0  0  0  0  0  0
    4.3138   -0.6339   -0.3421 H   0  0  0  0  0  0  0  0  0  0  0  0
    2.7682   -1.4769   -0.3986 H   0  0  0  0  0  0  0  0  0  0  0  0
    4.2263   -2.3016   -0.8601 H   0  0  0  0  0  0  0  0  0  0  0  0
    4.4760   -0.1714    2.3171 H   0  0  0  0  0  0  0  0  0  0  0  0
    2.6796    0.5245    0.8734 H   0  0  0  0  0  0  0  0  0  0  0  0
    1.0183   -0.6476    0.7551 H   0  0  0  0  0  0  0  0  0  0  0  0
    3.2313    1.9509    2.5639 H   0  0  0  0  0  0  0  0  0  0  0  0
    1.5165    1.9621    2.4320 H   0  0  0  0  0  0  0  0  0  0  0  0
    3.8368    2.6102    4.7375 H   0  0  0  0  0  0  0  0  0  0  0  0
    2.7294    2.3538    6.0798 H   0  0  0  0  0  0  0  0  0  0  0  0
    2.2276    3.2821    4.6764 H   0  0  0  0  0  0  0  0  0  0  0  0
  1  2  1  0
  1 34  1  0
  1 35  1  0
  1 36  1  0
  2  3  1  0
  2 31  1  0
  2 37  1  6
  3  4  1  0
  3 38  1  0
  3 39  1  0
  4  5  2  3
  4 40  1  0
  5  6  1  0
  5 41  1  0
  6  7  1  0
  6  8  1  0
  6 42  1  1
  7 43  1  0
  7 44  1  0
  7 45  1  0
  8 29  1  0
  8  9  1  0
  8 46  1  6
  9 10  1  0
  9 47  1  0
  9 48  1  0
 10 11  1  0
 10 49  1  0
 10 50  1  0
 11 29  1  0
 11 12  1  0
 11 51  1  1
 12 25  1  0
 12 13  1  0
 12 52  1  1
 13 14  1  0
 13 53  1  0
 13 54  1  0
 14 15  1  0
 14 16  2  0
 16 23  1  0
 16 17  1  0
 17 18  1  0
 17 55  1  0
 17 56  1  0
 18 19  2  0
 18 20  1  0
 20 21  1  0
 20 57  1  0
 20 58  1  0
 21 22  1  0
 21 23  1  0
 21 59  1  1
 22 60  1  0
 23 24  1  6
 23 25  1  0
 24 61  1  0
 24 62  1  0
 24 63  1  0
 25 26  1  0
 25 64  1  1
 26 27  1  0
 26 28  1  0
 26 65  1  6
 27 66  1  0
 28 29  1  0
 28 67  1  0
 28 68  1  0
 29 30  1  1
 30 69  1  0
 30 70  1  0
 30 71  1  0
 31 32  2  0
 31 33  1  0
M  CHG  1  33  -1
M  END
>  <i_m_ct_stereo_status>  (102) 
1

>  <s_m_source_file>  (102) 
/var/tmp/pbs.5083858.sched01/tmpbb0qt8oz/40b9btvjb8.sdf

>  <i_m_source_file_index>  (102) 
4

>  <i_lp_mmshare_version>  (102) 
48012

>  <i_f3d_flags>  (102) 
0

>  <s_epik_input>  (102) 
Tz1DKFtPSF0pW0NASF0oW0NIM10pW0NIMl0vW0NIXT1bQ0hdL1tDQEhdKFtDSDNdKVtDQEhdKFtDSDJdW0NIMl0xKVtDQF0oW0NIM10pKFtDSDJdW0NAQEhdKFtDQEBIXTIzKVtPSF0pW0NAQEhdMVtDQEhdMltDSDJdQyhGKT1DKFtDQEBdMzRbQ0gzXSlbQ0gyXUMoPU8pW0NIMl1bQ0BIXTRbT0hd

>  <s_epik_cmdline>  (102) 
J2VwaWtfcHl0aG9uJywgJy1waHQnLCAnMi4wJywgJy1waCcsICc3LjAnLCAnLXRuJywgJzgnLCAnLW1hJywgJzIwMCcsICctaW1hZScsICc8aW5maWxlLm1hZT4nLCAnLW9tYWUnLCAnPG91dGZpbGUubWFlPic=

>  <r_lp_tautomer_probability>  (102) 
0.99995

>  <r_epik_Ionization_Penalty>  (102) 
0.00214345

>  <r_epik_Ionization_Penalty_Charging>  (102) 
0.00214303

>  <r_epik_Ionization_Penalty_Neutral>  (102) 
4.26391e-07

>  <r_epik_State_Penalty>  (102) 
0.00147075

>  <r_epik_Charging_Adjusted_Penalty>  (102) 
0.00361378

>  <i_epik_Tot_Q>  (102) 
-1

>  <i_epik_Tot_abs_Q>  (102) 
1

>  <s_lp_Force_Field>  (102) 
OPLS3e

>  <r_lp_Energy>  (102) 
49.4352

>  <b_lp_Chiralities_Consistent>  (102) 
1

>  <s_lp_Variant>  (102) 
30:0-2

>  <s_i_glide_gridfile>  (102) 
pfpi4k_grid

>  <i_i_glide_lignum>  (102) 
4

>  <i_i_glide_rotatable_bonds>  (102) 
7

>  <r_i_docking_score>  (102) 
-2.22238

>  <r_i_glide_ligand_efficiency>  (102) 
-0.0673449

>  <r_i_glide_ligand_efficiency_sa>  (102) 
-0.216011

>  <r_i_glide_ligand_efficiency_ln>  (102) 
-0.494246

>  <r_i_glide_gscore>  (102) 
-2.22238

>  <r_i_glide_lipo>  (102) 
-0.273487

>  <r_i_glide_hbond>  (102) 
-0.16

>  <r_i_glide_metal>  (102) 
-0

>  <r_i_glide_rewards>  (102) 
-0.332307

>  <r_i_glide_evdw>  (102) 
-21.4085

>  <r_i_glide_ecoul>  (102) 
-4.97329

>  <r_i_glide_erotb>  (102) 
0.378057

>  <r_i_glide_esite>  (102) 
-0.0182263

>  <r_i_glide_emodel>  (102) 
-29.286

>  <r_i_glide_energy>  (102) 
-26.3818

>  <r_i_glide_einternal>  (102) 
3.69164

>  <r_i_glide_intrahb_reward>  (102) 
-0

>  <i_i_glide_confnum>  (102) 
5

>  <i_i_glide_posenum>  (102) 
27

>  <r_i_glide_eff_state_penalty>  (102) 
0

>  <ligand_id>  (102) 
30

>  <original_smiles>  (102) 
CC(CC=CC(C)C1CCC2C3CC(F)=C4CC(=O)CC(O)C4(C)C3C(O)CC12C)C(=O)O

>  <smiles>  (102) 
[H]OC1([H])C([H])([H])C2(C([H])([H])[H])C([H])(C([H])(C([H])=C([H])C([H])([H])C([H])(C(=O)[O-])C([H])([H])[H])C([H])([H])[H])C([H])([H])C([H])([H])C2([H])C2([H])C([H])([H])C(F)=C3C([H])([H])C(=O)C([H])([H])C([H])(O[H])C3(C([H])([H])[H])C12[H]

$$$$
31:0:0
     RDKit          3D

 48 53  0  0  1  0  0  0  0  0999 V2000
    1.8480   -4.7877    3.7484 C   0  0  0  0  0  0  0  0  0  0  0  0
    3.2744   -4.2258    3.5176 C   0  0  0  0  0  0  0  0  0  0  0  0
    3.2178   -2.6730    3.7368 C   0  0  0  0  0  0  0  0  0  0  0  0
    4.1138   -4.7506    2.2633 C   0  0  2  0  0  0  0  0  0  0  0  0
    5.5621   -4.1801    2.2305 C   0  0  0  0  0  0  0  0  0  0  0  0
    5.9595   -4.2729    0.7442 C   0  0  2  0  0  0  0  0  0  0  0  0
    5.7985   -3.0290    0.0526 O   0  0  0  0  0  0  0  0  0  0  0  0
    4.5327   -2.3610    0.2323 C   0  0  1  0  0  0  0  0  0  0  0  0
    4.2341   -1.4239   -0.9099 C   0  0  1  0  0  0  0  0  0  0  0  0
    5.3488   -0.6596   -1.2858 O   0  0  0  0  0  0  0  0  0  0  0  0
    3.5943   -2.3084   -1.9501 C   0  0  1  0  0  0  0  0  0  0  0  0
    2.6162   -1.7518   -2.9965 C   0  0  0  0  0  0  0  0  0  0  0  0
    3.6630   -1.9250   -4.1092 C   0  0  0  0  0  0  0  0  0  0  0  0
    4.4911   -2.7645   -3.1187 C   0  0  0  0  0  0  0  0  0  0  0  0
    5.4154   -3.5742   -3.2227 O   0  0  0  0  0  0  0  0  0  0  0  0
    3.1502   -3.4869   -1.2422 O   0  0  0  0  0  0  0  0  0  0  0  0
    3.3424   -3.3245    0.1240 C   0  0  2  0  0  0  0  0  0  0  0  0
    2.2196   -2.6717    0.6839 O   0  0  0  0  0  0  0  0  0  0  0  0
    3.6029   -4.7196    0.7829 C   0  0  2  0  0  0  0  0  0  0  0  0
    2.4884   -5.8062    0.7714 C   0  0  0  0  0  0  0  0  0  0  0  0
    1.4155   -5.7919    0.1844 O   0  0  0  0  0  0  0  0  0  0  0  0
    2.8850   -6.7243    1.6432 N   0  0  0  0  0  0  0  0  0  0  0  0
    4.1899   -6.3287    2.1712 C   0  0  1  0  0  0  0  0  0  0  0  0
    5.1745   -6.5983    0.9947 C   0  0  0  0  0  0  0  0  0  0  0  0
    4.9476   -5.2866    0.2022 C   0  0  2  0  0  0  0  0  0  0  0  0
    1.1828   -4.4872    2.9353 H   0  0  0  0  0  0  0  0  0  0  0  0
    1.3964   -4.4203    4.6729 H   0  0  0  0  0  0  0  0  0  0  0  0
    1.8280   -5.8770    3.8376 H   0  0  0  0  0  0  0  0  0  0  0  0
    3.8367   -4.6084    4.3532 H   0  0  0  0  0  0  0  0  0  0  0  0
    2.7629   -2.1106    2.9113 H   0  0  0  0  0  0  0  0  0  0  0  0
    4.2051   -2.2355    3.9350 H   0  0  0  0  0  0  0  0  0  0  0  0
    2.6059   -2.4327    4.6164 H   0  0  0  0  0  0  0  0  0  0  0  0
    5.6820   -3.1683    2.6050 H   0  0  0  0  0  0  0  0  0  0  0  0
    6.2186   -4.7984    2.8403 H   0  0  0  0  0  0  0  0  0  0  0  0
    6.9802   -4.6261    0.6210 H   0  0  0  0  0  0  0  0  0  0  0  0
    4.5049   -1.8537    1.1992 H   0  0  0  0  0  0  0  0  0  0  0  0
    3.5040   -0.7137   -0.5346 H   0  0  0  0  0  0  0  0  0  0  0  0
    5.1336    0.2582   -1.1127 H   0  0  0  0  0  0  0  0  0  0  0  0
    1.7346   -2.3671   -3.1223 H   0  0  0  0  0  0  0  0  0  0  0  0
    2.3600   -0.7064   -2.7953 H   0  0  0  0  0  0  0  0  0  0  0  0
    3.2640   -2.4621   -4.9716 H   0  0  0  0  0  0  0  0  0  0  0  0
    4.1722   -0.9949   -4.3486 H   0  0  0  0  0  0  0  0  0  0  0  0
    1.9800   -1.9770    0.0904 H   0  0  0  0  0  0  0  0  0  0  0  0
    2.3405   -7.5183    1.9586 H   0  0  0  0  0  0  0  0  0  0  0  0
    4.4417   -6.8369    3.1021 H   0  0  0  0  0  0  0  0  0  0  0  0
    6.2111   -6.7469    1.3203 H   0  0  0  0  0  0  0  0  0  0  0  0
    4.8638   -7.4701    0.4156 H   0  0  0  0  0  0  0  0  0  0  0  0
    4.9636   -5.4011   -0.8915 H   0  0  0  0  0  0  0  0  0  0  0  0
  1  2  1  0
  1 26  1  0
  1 27  1  0
  1 28  1  0
  2  3  1  0
  4  2  1  1
  2 29  1  0
  3 30  1  0
  3 31  1  0
  3 32  1  0
  4 19  1  0
  4 23  1  0
  4  5  1  0
  5  6  1  0
  5 33  1  0
  5 34  1  0
  6 25  1  0
  6  7  1  0
  6 35  1  1
  7  8  1  0
  8 17  1  0
  8  9  1  0
  8 36  1  1
  9 10  1  0
  9 11  1  0
  9 37  1  1
 10 38  1  0
 11 14  1  0
 11 12  1  0
 11 16  1  1
 12 13  1  0
 12 39  1  0
 12 40  1  0
 13 14  1  0
 13 41  1  0
 13 42  1  0
 14 15  2  0
 16 17  1  0
 17 18  1  1
 17 19  1  0
 18 43  1  0
 19 25  1  0
 19 20  1  1
 20 21  2  0
 20 22  1  0
 22 23  1  0
 22 44  1  0
 23 24  1  0
 23 45  1  1
 24 25  1  0
 24 46  1  0
 24 47  1  0
 25 48  1  6
M  END
>  <i_m_ct_stereo_status>  (103) 
1

>  <s_m_source_file>  (103) 
/var/tmp/pbs.5083858.sched01/tmpbb0qt8oz/40b9btvjb8.sdf

>  <i_m_source_file_index>  (103) 
5

>  <i_lp_mmshare_version>  (103) 
48012

>  <i_f3d_flags>  (103) 
0

>  <s_epik_input>  (103) 
W0NIMl0xW0NASF0oTzIpW0NASF0zW0NIMl1bQ0BIXShbTkhdQzQ9TylbQ0BdMShbQ0hdKFtDSDNdKVtDSDNdKVtDQEBdMzRbQ0BAXShPNSkoW09IXSlbQ0BASF0yW0NAQEhdKFtPSF0pW0NAXTU2W0NIMl1bQ0gyXUM2PU8=

>  <s_epik_cmdline>  (103) 
J2VwaWtfcHl0aG9uJywgJy1waHQnLCAnMi4wJywgJy1waCcsICc3LjAnLCAnLXRuJywgJzgnLCAnLW1hJywgJzIwMCcsICctaW1hZScsICc8aW5maWxlLm1hZT4nLCAnLW9tYWUnLCAnPG91dGZpbGUubWFlPic=

>  <r_lp_tautomer_probability>  (103) 
1

>  <r_epik_Ionization_Penalty>  (103) 
2.29477e-05

>  <r_epik_Ionization_Penalty_Charging>  (103) 
0

>  <r_epik_Ionization_Penalty_Neutral>  (103) 
2.29477e-05

>  <r_epik_State_Penalty>  (103) 
-0

>  <r_epik_Charging_Adjusted_Penalty>  (103) 
0

>  <i_epik_Tot_Q>  (103) 
0

>  <i_epik_Tot_abs_Q>  (103) 
0

>  <s_lp_Force_Field>  (103) 
OPLS3e

>  <r_lp_Energy>  (103) 
62.3791

>  <b_lp_Chiralities_Consistent>  (103) 
1

>  <s_lp_Variant>  (103) 
31:0-1

>  <s_i_glide_gridfile>  (103) 
pfpi4k_grid

>  <i_i_glide_lignum>  (103) 
5

>  <i_i_glide_rotatable_bonds>  (103) 
3

>  <r_i_docking_score>  (103) 
-4.0574

>  <r_i_glide_ligand_efficiency>  (103) 
-0.162296

>  <r_i_glide_ligand_efficiency_sa>  (103) 
-0.474556

>  <r_i_glide_ligand_efficiency_ln>  (103) 
-0.961725

>  <r_i_glide_gscore>  (103) 
-4.0574

>  <r_i_glide_lipo>  (103) 
-0.281477

>  <r_i_glide_hbond>  (103) 
-0.148584

>  <r_i_glide_metal>  (103) 
-0

>  <r_i_glide_rewards>  (103) 
-1.19142

>  <r_i_glide_evdw>  (103) 
-21.2872

>  <r_i_glide_ecoul>  (103) 
-8.92472

>  <r_i_glide_erotb>  (103) 
0

>  <r_i_glide_esite>  (103) 
-0.0328455

>  <r_i_glide_emodel>  (103) 
-35.7276

>  <r_i_glide_energy>  (103) 
-30.2119

>  <r_i_glide_einternal>  (103) 
6.61489

>  <r_i_glide_intrahb_reward>  (103) 
-0

>  <i_i_glide_confnum>  (103) 
1

>  <i_i_glide_posenum>  (103) 
37

>  <r_i_glide_eff_state_penalty>  (103) 
0

>  <ligand_id>  (103) 
31

>  <original_smiles>  (103) 
CC(C)C12CC3OC4C(O)C5(CCC5=O)OC4(O)C14C(=O)NC2CC34

>  <smiles>  (103) 
[H]OC1([H])C2([H])OC3([H])C([H])([H])C4(C([H])(C([H])([H])[H])C([H])([H])[H])C5([H])N([H])C(=O)C4(C2(O[H])OC12C(=O)C([H])([H])C2([H])[H])C3([H])C5([H])[H]

$$$$
31:0:1
     RDKit          3D

 48 53  0  0  1  0  0  0  0  0999 V2000
    4.8893   -1.2553    5.9182 C   0  0  0  0  0  0  0  0  0  0  0  0
    4.9744   -1.2601    4.3700 C   0  0  0  0  0  0  0  0  0  0  0  0
    5.4967    0.1537    3.9771 C   0  0  0  0  0  0  0  0  0  0  0  0
    3.6827   -1.8644    3.6635 C   0  0  2  0  0  0  0  0  0  0  0  0
    3.6241   -3.4271    3.6619 C   0  0  0  0  0  0  0  0  0  0  0  0
    2.7410   -3.7679    2.4289 C   0  0  2  0  0  0  0  0  0  0  0  0
    3.4937   -4.1307    1.2607 O   0  0  0  0  0  0  0  0  0  0  0  0
    4.6048   -3.2902    0.9347 C   0  0  1  0  0  0  0  0  0  0  0  0
    4.9731   -3.4005   -0.5371 C   0  0  1  0  0  0  0  0  0  0  0  0
    5.0286   -4.7257   -1.0389 O   0  0  0  0  0  0  0  0  0  0  0  0
    4.0241   -2.4348   -1.2300 C   0  0  1  0  0  0  0  0  0  0  0  0
    4.3809   -1.7932   -2.5874 C   0  0  0  0  0  0  0  0  0  0  0  0
    3.3494   -2.6837   -3.3093 C   0  0  0  0  0  0  0  0  0  0  0  0
    2.7946   -3.0562   -1.9188 C   0  0  0  0  0  0  0  0  0  0  0  0
    1.7892   -3.6313   -1.5130 O   0  0  0  0  0  0  0  0  0  0  0  0
    3.5624   -1.5614   -0.2015 O   0  0  0  0  0  0  0  0  0  0  0  0
    4.2277   -1.7918    1.0087 C   0  0  2  0  0  0  0  0  0  0  0  0
    5.4085   -1.0557    1.0585 O   0  0  0  0  0  0  0  0  0  0  0  0
    3.2826   -1.4500    2.2109 C   0  0  2  0  0  0  0  0  0  0  0  0
    2.8220   -0.0075    2.4125 C   0  0  0  0  0  0  0  0  0  0  0  0
    2.9753    0.9429    1.6170 O   0  0  0  0  0  0  0  0  0  0  0  0
    2.3047    0.0597    3.6267 N   0  0  0  0  0  0  0  0  0  0  0  0
    2.3266   -1.2919    4.2028 C   0  0  1  0  0  0  0  0  0  0  0  0
    1.2362   -2.0741    3.4265 C   0  0  0  0  0  0  0  0  0  0  0  0
    2.0640   -2.4211    2.1648 C   0  0  2  0  0  0  0  0  0  0  0  0
    4.1970   -0.4921    6.2635 H   0  0  0  0  0  0  0  0  0  0  0  0
    5.8568   -0.9863    6.3378 H   0  0  0  0  0  0  0  0  0  0  0  0
    4.6050   -2.2099    6.3627 H   0  0  0  0  0  0  0  0  0  0  0  0
    5.7688   -1.9638    4.1308 H   0  0  0  0  0  0  0  0  0  0  0  0
    4.7420    0.9239    4.1659 H   0  0  0  0  0  0  0  0  0  0  0  0
    5.8082    0.1994    2.9352 H   0  0  0  0  0  0  0  0  0  0  0  0
    6.3634    0.4398    4.5881 H   0  0  0  0  0  0  0  0  0  0  0  0
    4.5996   -3.9143    3.6154 H   0  0  0  0  0  0  0  0  0  0  0  0
    3.1481   -3.8017    4.5739 H   0  0  0  0  0  0  0  0  0  0  0  0
    2.0138   -4.5509    2.6463 H   0  0  0  0  0  0  0  0  0  0  0  0
    5.4524   -3.4998    1.5865 H   0  0  0  0  0  0  0  0  0  0  0  0
    5.9936   -3.0258   -0.6241 H   0  0  0  0  0  0  0  0  0  0  0  0
    4.1519   -5.0098   -1.2316 H   0  0  0  0  0  0  0  0  0  0  0  0
    4.1683   -0.7254   -2.6320 H   0  0  0  0  0  0  0  0  0  0  0  0
    5.4110   -1.9985   -2.8810 H   0  0  0  0  0  0  0  0  0  0  0  0
    2.6666   -2.1368   -3.9653 H   0  0  0  0  0  0  0  0  0  0  0  0
    3.8088   -3.5454   -3.7967 H   0  0  0  0  0  0  0  0  0  0  0  0
    5.1738   -0.1192    1.0733 H   0  0  0  0  0  0  0  0  0  0  0  0
    1.9925    0.8895    4.1048 H   0  0  0  0  0  0  0  0  0  0  0  0
    2.1930   -1.3023    5.2838 H   0  0  0  0  0  0  0  0  0  0  0  0
    0.8640   -2.9539    3.9649 H   0  0  0  0  0  0  0  0  0  0  0  0
    0.3802   -1.4406    3.1906 H   0  0  0  0  0  0  0  0  0  0  0  0
    1.4955   -2.3671    1.2318 H   0  0  0  0  0  0  0  0  0  0  0  0
  1  2  1  0
  1 26  1  0
  1 27  1  0
  1 28  1  0
  2  3  1  0
  4  2  1  1
  2 29  1  0
  3 30  1  0
  3 31  1  0
  3 32  1  0
  4 19  1  0
  4 23  1  0
  4  5  1  0
  5  6  1  0
  5 33  1  0
  5 34  1  0
  6 25  1  0
  6  7  1  0
  6 35  1  1
  7  8  1  0
  8 17  1  0
  8  9  1  0
  8 36  1  1
  9 10  1  0
  9 11  1  0
  9 37  1  1
 10 38  1  0
 11 14  1  0
 11 12  1  0
 11 16  1  1
 12 13  1  0
 12 39  1  0
 12 40  1  0
 13 14  1  0
 13 41  1  0
 13 42  1  0
 14 15  2  0
 16 17  1  0
 17 18  1  6
 17 19  1  0
 18 43  1  0
 19 25  1  0
 19 20  1  1
 20 21  2  0
 20 22  1  0
 22 23  1  0
 22 44  1  0
 23 24  1  0
 23 45  1  1
 24 25  1  0
 24 46  1  0
 24 47  1  0
 25 48  1  6
M  END
>  <i_m_ct_stereo_status>  (104) 
1

>  <s_m_source_file>  (104) 
/var/tmp/pbs.5083858.sched01/tmpbb0qt8oz/40b9btvjb8.sdf

>  <i_m_source_file_index>  (104) 
5

>  <i_lp_mmshare_version>  (104) 
48012

>  <i_f3d_flags>  (104) 
0

>  <s_epik_input>  (104) 
W0NIMl0xW0NASF0oTzIpW0NASF0zW0NIMl1bQ0BIXShbTkhdQzQ9TylbQ0BdMShbQ0hdKFtDSDNdKVtDSDNdKVtDQEBdMzRbQ0BAXShPNSkoW09IXSlbQ0BASF0yW0NAQEhdKFtPSF0pW0NAXTU2W0NIMl1bQ0gyXUM2PU8=

>  <s_epik_cmdline>  (104) 
J2VwaWtfcHl0aG9uJywgJy1waHQnLCAnMi4wJywgJy1waCcsICc3LjAnLCAnLXRuJywgJzgnLCAnLW1hJywgJzIwMCcsICctaW1hZScsICc8aW5maWxlLm1hZT4nLCAnLW9tYWUnLCAnPG91dGZpbGUubWFlPic=

>  <r_lp_tautomer_probability>  (104) 
1

>  <r_epik_Ionization_Penalty>  (104) 
2.29477e-05

>  <r_epik_Ionization_Penalty_Charging>  (104) 
0

>  <r_epik_Ionization_Penalty_Neutral>  (104) 
2.29477e-05

>  <r_epik_State_Penalty>  (104) 
-0

>  <r_epik_Charging_Adjusted_Penalty>  (104) 
0

>  <i_epik_Tot_Q>  (104) 
0

>  <i_epik_Tot_abs_Q>  (104) 
0

>  <s_lp_Force_Field>  (104) 
OPLS3e

>  <r_lp_Energy>  (104) 
62.3791

>  <b_lp_Chiralities_Consistent>  (104) 
1

>  <s_lp_Variant>  (104) 
31:0-1

>  <s_i_glide_gridfile>  (104) 
pfpi4k_grid

>  <i_i_glide_lignum>  (104) 
5

>  <i_i_glide_rotatable_bonds>  (104) 
3

>  <r_i_docking_score>  (104) 
-2.57345

>  <r_i_glide_ligand_efficiency>  (104) 
-0.102938

>  <r_i_glide_ligand_efficiency_sa>  (104) 
-0.300993

>  <r_i_glide_ligand_efficiency_ln>  (104) 
-0.609985

>  <r_i_glide_gscore>  (104) 
-2.57345

>  <r_i_glide_lipo>  (104) 
-0.397167

>  <r_i_glide_hbond>  (104) 
0

>  <r_i_glide_metal>  (104) 
-0

>  <r_i_glide_rewards>  (104) 
-1.02719

>  <r_i_glide_evdw>  (104) 
-21.5166

>  <r_i_glide_ecoul>  (104) 
-0.422062

>  <r_i_glide_erotb>  (104) 
0

>  <r_i_glide_esite>  (104) 
-0.00995682

>  <r_i_glide_emodel>  (104) 
-22.599

>  <r_i_glide_energy>  (104) 
-21.9387

>  <r_i_glide_einternal>  (104) 
7.84115

>  <r_i_glide_intrahb_reward>  (104) 
-0

>  <i_i_glide_confnum>  (104) 
2

>  <i_i_glide_posenum>  (104) 
9

>  <r_i_glide_eff_state_penalty>  (104) 
0

>  <ligand_id>  (104) 
31

>  <original_smiles>  (104) 
CC(C)C12CC3OC4C(O)C5(CCC5=O)OC4(O)C14C(=O)NC2CC34

>  <smiles>  (104) 
[H]OC1([H])C2([H])OC3([H])C([H])([H])C4(C([H])(C([H])([H])[H])C([H])([H])[H])C5([H])N([H])C(=O)C4(C2(O[H])OC12C(=O)C([H])([H])C2([H])[H])C3([H])C5([H])[H]

$$$$
31:0:2
     RDKit          3D

 48 53  0  0  1  0  0  0  0  0999 V2000
    4.8145    1.3372    5.6247 C   0  0  0  0  0  0  0  0  0  0  0  0
    3.8680    0.8486    4.5081 C   0  0  0  0  0  0  0  0  0  0  0  0
    2.4872    1.4926    4.8137 C   0  0  0  0  0  0  0  0  0  0  0  0
    3.9160   -0.7264    4.2322 C   0  0  2  0  0  0  0  0  0  0  0  0
    5.3657   -1.3043    4.2718 C   0  0  0  0  0  0  0  0  0  0  0  0
    5.2917   -2.5532    3.3639 C   0  0  2  0  0  0  0  0  0  0  0  0
    5.7955   -2.3188    2.0444 O   0  0  0  0  0  0  0  0  0  0  0  0
    5.3589   -1.1109    1.3993 C   0  0  1  0  0  0  0  0  0  0  0  0
    5.4919   -1.2482   -0.1077 C   0  0  1  0  0  0  0  0  0  0  0  0
    6.7045   -1.8405   -0.5479 O   0  0  0  0  0  0  0  0  0  0  0  0
    4.1986   -1.9517   -0.5209 C   0  0  1  0  0  0  0  0  0  0  0  0
    3.6593   -1.8197   -1.9635 C   0  0  0  0  0  0  0  0  0  0  0  0
    4.0741   -3.2661   -2.2979 C   0  0  0  0  0  0  0  0  0  0  0  0
    4.3117   -3.4770   -0.7835 C   0  0  0  0  0  0  0  0  0  0  0  0
    4.5147   -4.4665   -0.0804 O   0  0  0  0  0  0  0  0  0  0  0  0
    3.2857   -1.7419    0.5477 O   0  0  0  0  0  0  0  0  0  0  0  0
    3.8297   -0.9142    1.5404 C   0  0  2  0  0  0  0  0  0  0  0  0
    3.5081    0.4315    1.2944 O   0  0  0  0  0  0  0  0  0  0  0  0
    3.3009   -1.3459    2.9469 C   0  0  2  0  0  0  0  0  0  0  0  0
    1.7991   -1.2032    3.2144 C   0  0  0  0  0  0  0  0  0  0  0  0
    0.9438   -0.8993    2.3843 O   0  0  0  0  0  0  0  0  0  0  0  0
    1.6355   -1.3240    4.5210 N   0  0  0  0  0  0  0  0  0  0  0  0
    2.9468   -1.5803    5.1220 C   0  0  1  0  0  0  0  0  0  0  0  0
    3.2701   -3.0455    4.7215 C   0  0  0  0  0  0  0  0  0  0  0  0
    3.7872   -2.7886    3.2750 C   0  0  2  0  0  0  0  0  0  0  0  0
    4.4908    1.0121    6.6148 H   0  0  0  0  0  0  0  0  0  0  0  0
    4.8257    2.4304    5.6466 H   0  0  0  0  0  0  0  0  0  0  0  0
    5.8528    1.0377    5.4858 H   0  0  0  0  0  0  0  0  0  0  0  0
    4.2396    1.3274    3.6054 H   0  0  0  0  0  0  0  0  0  0  0  0
    2.0280    1.0408    5.6919 H   0  0  0  0  0  0  0  0  0  0  0  0
    1.8030    1.4173    3.9727 H   0  0  0  0  0  0  0  0  0  0  0  0
    2.5647    2.5631    5.0464 H   0  0  0  0  0  0  0  0  0  0  0  0
    6.1241   -0.5974    3.9366 H   0  0  0  0  0  0  0  0  0  0  0  0
    5.6263   -1.5874    5.2911 H   0  0  0  0  0  0  0  0  0  0  0  0
    5.8013   -3.4095    3.8113 H   0  0  0  0  0  0  0  0  0  0  0  0
    5.9133   -0.2533    1.7757 H   0  0  0  0  0  0  0  0  0  0  0  0
    5.4680   -0.2449   -0.5151 H   0  0  0  0  0  0  0  0  0  0  0  0
    6.7409   -2.7218   -0.1926 H   0  0  0  0  0  0  0  0  0  0  0  0
    2.5811   -1.6687   -1.9975 H   0  0  0  0  0  0  0  0  0  0  0  0
    4.1690   -1.0677   -2.5552 H   0  0  0  0  0  0  0  0  0  0  0  0
    3.2771   -3.8547   -2.7574 H   0  0  0  0  0  0  0  0  0  0  0  0
    5.0017   -3.3160   -2.8756 H   0  0  0  0  0  0  0  0  0  0  0  0
    2.5574    0.4946    1.2973 H   0  0  0  0  0  0  0  0  0  0  0  0
    0.7800   -1.1358    5.0280 H   0  0  0  0  0  0  0  0  0  0  0  0
    2.9845   -1.3728    6.1895 H   0  0  0  0  0  0  0  0  0  0  0  0
    4.0122   -3.5198    5.3766 H   0  0  0  0  0  0  0  0  0  0  0  0
    2.3728   -3.6653    4.7196 H   0  0  0  0  0  0  0  0  0  0  0  0
    3.4938   -3.5474    2.5445 H   0  0  0  0  0  0  0  0  0  0  0  0
  1  2  1  0
  1 26  1  0
  1 27  1  0
  1 28  1  0
  2  3  1  0
  4  2  1  6
  2 29  1  0
  3 30  1  0
  3 31  1  0
  3 32  1  0
  4 19  1  0
  4 23  1  0
  4  5  1  0
  5  6  1  0
  5 33  1  0
  5 34  1  0
  6 25  1  0
  6  7  1  0
  6 35  1  1
  7  8  1  0
  8 17  1  0
  8  9  1  0
  8 36  1  1
  9 10  1  0
  9 11  1  0
  9 37  1  6
 10 38  1  0
 11 14  1  0
 11 12  1  0
 11 16  1  1
 12 13  1  0
 12 39  1  0
 12 40  1  0
 13 14  1  0
 13 41  1  0
 13 42  1  0
 14 15  2  0
 16 17  1  0
 17 18  1  6
 17 19  1  0
 18 43  1  0
 19 25  1  0
 19 20  1  6
 20 21  2  0
 20 22  1  0
 22 23  1  0
 22 44  1  0
 23 24  1  0
 23 45  1  1
 24 25  1  0
 24 46  1  0
 24 47  1  0
 25 48  1  6
M  END
>  <i_m_ct_stereo_status>  (105) 
1

>  <s_m_source_file>  (105) 
/var/tmp/pbs.5083858.sched01/tmpbb0qt8oz/40b9btvjb8.sdf

>  <i_m_source_file_index>  (105) 
5

>  <i_lp_mmshare_version>  (105) 
48012

>  <i_f3d_flags>  (105) 
0

>  <s_epik_input>  (105) 
W0NIMl0xW0NASF0oTzIpW0NASF0zW0NIMl1bQ0BIXShbTkhdQzQ9TylbQ0BdMShbQ0hdKFtDSDNdKVtDSDNdKVtDQEBdMzRbQ0BAXShPNSkoW09IXSlbQ0BASF0yW0NAQEhdKFtPSF0pW0NAXTU2W0NIMl1bQ0gyXUM2PU8=

>  <s_epik_cmdline>  (105) 
J2VwaWtfcHl0aG9uJywgJy1waHQnLCAnMi4wJywgJy1waCcsICc3LjAnLCAnLXRuJywgJzgnLCAnLW1hJywgJzIwMCcsICctaW1hZScsICc8aW5maWxlLm1hZT4nLCAnLW9tYWUnLCAnPG91dGZpbGUubWFlPic=

>  <r_lp_tautomer_probability>  (105) 
1

>  <r_epik_Ionization_Penalty>  (105) 
2.29477e-05

>  <r_epik_Ionization_Penalty_Charging>  (105) 
0

>  <r_epik_Ionization_Penalty_Neutral>  (105) 
2.29477e-05

>  <r_epik_State_Penalty>  (105) 
-0

>  <r_epik_Charging_Adjusted_Penalty>  (105) 
0

>  <i_epik_Tot_Q>  (105) 
0

>  <i_epik_Tot_abs_Q>  (105) 
0

>  <s_lp_Force_Field>  (105) 
OPLS3e

>  <r_lp_Energy>  (105) 
62.3791

>  <b_lp_Chiralities_Consistent>  (105) 
1

>  <s_lp_Variant>  (105) 
31:0-1

>  <s_i_glide_gridfile>  (105) 
pfpi4k_grid

>  <i_i_glide_lignum>  (105) 
5

>  <i_i_glide_rotatable_bonds>  (105) 
3

>  <r_i_docking_score>  (105) 
-2.25102

>  <r_i_glide_ligand_efficiency>  (105) 
-0.090041

>  <r_i_glide_ligand_efficiency_sa>  (105) 
-0.263281

>  <r_i_glide_ligand_efficiency_ln>  (105) 
-0.53356

>  <r_i_glide_gscore>  (105) 
-2.25102

>  <r_i_glide_lipo>  (105) 
-0.229427

>  <r_i_glide_hbond>  (105) 
0

>  <r_i_glide_metal>  (105) 
-0

>  <r_i_glide_rewards>  (105) 
-1.05473

>  <r_i_glide_evdw>  (105) 
-18.5072

>  <r_i_glide_ecoul>  (105) 
-0.2164

>  <r_i_glide_erotb>  (105) 
0

>  <r_i_glide_esite>  (105) 
-0.00904704

>  <r_i_glide_emodel>  (105) 
-20.0121

>  <r_i_glide_energy>  (105) 
-18.7236

>  <r_i_glide_einternal>  (105) 
6.56142

>  <r_i_glide_intrahb_reward>  (105) 
-0

>  <i_i_glide_confnum>  (105) 
1

>  <i_i_glide_posenum>  (105) 
1

>  <r_i_glide_eff_state_penalty>  (105) 
0

>  <ligand_id>  (105) 
31

>  <original_smiles>  (105) 
CC(C)C12CC3OC4C(O)C5(CCC5=O)OC4(O)C14C(=O)NC2CC34

>  <smiles>  (105) 
[H]OC1([H])C2([H])OC3([H])C([H])([H])C4(C([H])(C([H])([H])[H])C([H])([H])[H])C5([H])N([H])C(=O)C4(C2(O[H])OC12C(=O)C([H])([H])C2([H])[H])C3([H])C5([H])[H]

$$$$
32:0:0
     RDKit          3D

 36 37  0  0  1  0  0  0  0  0999 V2000
    6.8064   -5.3141    1.3935 C   0  0  0  0  0  0  0  0  0  0  0  0
    6.5747   -4.4932    0.1132 C   0  0  0  0  0  0  0  0  0  0  0  0
    7.9145   -3.8758   -0.3474 C   0  0  0  0  0  0  0  0  0  0  0  0
    5.4626   -3.4340    0.2834 C   0  0  2  0  0  0  0  0  0  0  0  0
    4.1021   -4.0265    0.7247 C   0  0  0  0  0  0  0  0  0  0  0  0
    2.9740   -3.2827   -0.0249 C   0  0  1  0  0  0  0  0  0  0  0  0
    1.8586   -4.2453   -0.4789 C   0  0  0  0  0  0  0  0  0  0  0  0
    2.3640   -2.3587    0.8607 O   0  0  0  0  0  0  0  0  0  0  0  0
    3.6605   -2.5457   -1.1848 C   0  0  2  0  0  0  0  0  0  0  0  0
    3.1429   -2.8696   -2.5014 C   0  0  0  0  0  0  0  0  0  0  0  0
    2.7563   -3.1129   -3.5616 N   0  0  0  0  0  0  0  0  0  0  0  0
    5.1551   -2.6823   -1.0018 C   0  0  1  0  0  0  0  0  0  0  0  0
    4.5336   -1.3195   -1.0457 C   0  0  0  0  0  0  0  0  0  0  0  0
    4.7360   -0.4781   -2.2905 C   0  0  0  0  0  0  0  0  0  0  0  0
    4.5058   -0.4416    0.2080 C   0  0  0  0  0  0  0  0  0  0  0  0
    7.1044   -4.6730    2.2220 H   0  0  0  0  0  0  0  0  0  0  0  0
    7.5884   -6.0624    1.2553 H   0  0  0  0  0  0  0  0  0  0  0  0
    5.9106   -5.8506    1.7024 H   0  0  0  0  0  0  0  0  0  0  0  0
    6.2142   -5.1814   -0.6471 H   0  0  0  0  0  0  0  0  0  0  0  0
    8.2977   -3.1621    0.3805 H   0  0  0  0  0  0  0  0  0  0  0  0
    7.8360   -3.3537   -1.2987 H   0  0  0  0  0  0  0  0  0  0  0  0
    8.6799   -4.6410   -0.4869 H   0  0  0  0  0  0  0  0  0  0  0  0
    5.8212   -2.7268    1.0353 H   0  0  0  0  0  0  0  0  0  0  0  0
    4.0741   -5.0808    0.4357 H   0  0  0  0  0  0  0  0  0  0  0  0
    3.9836   -3.9993    1.8099 H   0  0  0  0  0  0  0  0  0  0  0  0
    2.2110   -5.0395   -1.1202 H   0  0  0  0  0  0  0  0  0  0  0  0
    1.0894   -3.7082   -1.0445 H   0  0  0  0  0  0  0  0  0  0  0  0
    1.4186   -4.7527    0.3764 H   0  0  0  0  0  0  0  0  0  0  0  0
    1.8490   -1.7519    0.3264 H   0  0  0  0  0  0  0  0  0  0  0  0
    5.7210   -3.0039   -1.8800 H   0  0  0  0  0  0  0  0  0  0  0  0
    5.6245    0.1352   -2.2011 H   0  0  0  0  0  0  0  0  0  0  0  0
    3.8611    0.1415   -2.4624 H   0  0  0  0  0  0  0  0  0  0  0  0
    4.8799   -1.1084   -3.1663 H   0  0  0  0  0  0  0  0  0  0  0  0
    5.3746    0.2032    0.2748 H   0  0  0  0  0  0  0  0  0  0  0  0
    4.4426   -1.0505    1.1125 H   0  0  0  0  0  0  0  0  0  0  0  0
    3.6110    0.1652    0.2102 H   0  0  0  0  0  0  0  0  0  0  0  0
  1  2  1  0
  1 16  1  0
  1 17  1  0
  1 18  1  0
  2  3  1  0
  2  4  1  0
  2 19  1  0
  3 20  1  0
  3 21  1  0
  3 22  1  0
  4 12  1  0
  4  5  1  0
  4 23  1  1
  5  6  1  0
  5 24  1  0
  5 25  1  0
  6  7  1  0
  6  8  1  1
  6  9  1  0
  7 26  1  0
  7 27  1  0
  7 28  1  0
  8 29  1  0
  9 13  1  0
  9 10  1  6
  9 12  1  0
 10 11  3  0
 12 13  1  0
 12 30  1  6
 13 14  1  0
 13 15  1  0
 14 31  1  0
 14 32  1  0
 14 33  1  0
 15 34  1  0
 15 35  1  0
 15 36  1  0
M  END
>  <i_m_ct_stereo_status>  (106) 
1

>  <s_m_source_file>  (106) 
/var/tmp/pbs.5083858.sched01/tmp79lo_wn1/45k2ce5rku.sdf

>  <i_m_source_file_index>  (106) 
1

>  <i_lp_mmshare_version>  (106) 
48012

>  <i_f3d_flags>  (106) 
0

>  <s_epik_input>  (106) 
W0NIM11bQ0BAXTEoW09IXSlbQ0gyXVtDQEBIXShbQ0hdKFtDSDNdKVtDSDNdKVtDQEBIXShDMTJDI04pQzIoW0NIM10pW0NIM10=

>  <s_epik_cmdline>  (106) 
J2VwaWtfcHl0aG9uJywgJy1waHQnLCAnMi4wJywgJy1waCcsICc3LjAnLCAnLXRuJywgJzgnLCAnLW1hJywgJzIwMCcsICctaW1hZScsICc8aW5maWxlLm1hZT4nLCAnLW9tYWUnLCAnPG91dGZpbGUubWFlPic=

>  <r_lp_tautomer_probability>  (106) 
1

>  <r_epik_Ionization_Penalty>  (106) 
3.17056e-08

>  <r_epik_Ionization_Penalty_Charging>  (106) 
0

>  <r_epik_Ionization_Penalty_Neutral>  (106) 
3.17056e-08

>  <r_epik_State_Penalty>  (106) 
-0

>  <r_epik_Charging_Adjusted_Penalty>  (106) 
0

>  <i_epik_Tot_Q>  (106) 
0

>  <i_epik_Tot_abs_Q>  (106) 
0

>  <s_lp_Force_Field>  (106) 
OPLS3e

>  <r_lp_Energy>  (106) 
11.0342

>  <b_lp_Chiralities_Consistent>  (106) 
1

>  <s_lp_Variant>  (106) 
32:0-1

>  <s_i_glide_gridfile>  (106) 
pfpi4k_grid

>  <i_i_glide_lignum>  (106) 
1

>  <i_i_glide_rotatable_bonds>  (106) 
3

>  <r_i_docking_score>  (106) 
-3.6311

>  <r_i_glide_ligand_efficiency>  (106) 
-0.242073

>  <r_i_glide_ligand_efficiency_sa>  (106) 
-0.597004

>  <r_i_glide_ligand_efficiency_ln>  (106) 
-0.979248

>  <r_i_glide_gscore>  (106) 
-3.6311

>  <r_i_glide_lipo>  (106) 
-0.486851

>  <r_i_glide_hbond>  (106) 
-0.16

>  <r_i_glide_metal>  (106) 
-0

>  <r_i_glide_rewards>  (106) 
-1.9956

>  <r_i_glide_evdw>  (106) 
-10.3431

>  <r_i_glide_ecoul>  (106) 
-2.89441

>  <r_i_glide_erotb>  (106) 
0

>  <r_i_glide_esite>  (106) 
-0.0373309

>  <r_i_glide_emodel>  (106) 
-15.5244

>  <r_i_glide_energy>  (106) 
-13.2375

>  <r_i_glide_einternal>  (106) 
1.85709

>  <r_i_glide_intrahb_reward>  (106) 
-0

>  <i_i_glide_confnum>  (106) 
4

>  <i_i_glide_posenum>  (106) 
22

>  <r_i_glide_eff_state_penalty>  (106) 
0

>  <ligand_id>  (106) 
32

>  <original_smiles>  (106) 
CC(C)C1CC(C)(O)C2(C#N)C1C2(C)C

>  <smiles>  (106) 
[H]OC1(C([H])([H])[H])C([H])([H])C([H])(C([H])(C([H])([H])[H])C([H])([H])[H])C2([H])C1(C#N)C2(C([H])([H])[H])C([H])([H])[H]

$$$$
32:0:1
     RDKit          3D

 36 37  0  0  1  0  0  0  0  0999 V2000
    8.7942   -3.9007   -1.2980 C   0  0  0  0  0  0  0  0  0  0  0  0
    8.6026   -2.6169   -0.4931 C   0  0  0  0  0  0  0  0  0  0  0  0
    9.5114   -2.6268    0.7311 C   0  0  0  0  0  0  0  0  0  0  0  0
    7.1134   -2.3302   -0.1286 C   0  0  2  0  0  0  0  0  0  0  0  0
    6.3545   -3.5047    0.5683 C   0  0  0  0  0  0  0  0  0  0  0  0
    4.9251   -3.5769   -0.0365 C   0  0  1  0  0  0  0  0  0  0  0  0
    4.4875   -5.0183   -0.3208 C   0  0  0  0  0  0  0  0  0  0  0  0
    3.9810   -3.1294    0.9268 O   0  0  0  0  0  0  0  0  0  0  0  0
    4.9477   -2.6933   -1.2965 C   0  0  2  0  0  0  0  0  0  0  0  0
    4.5777   -3.3124   -2.5404 C   0  0  0  0  0  0  0  0  0  0  0  0
    4.2941   -3.7891   -3.5657 N   0  0  0  0  0  0  0  0  0  0  0  0
    6.2720   -1.9462   -1.3296 C   0  0  1  0  0  0  0  0  0  0  0  0
    4.9704   -1.1654   -1.2430 C   0  0  0  0  0  0  0  0  0  0  0  0
    4.4753   -0.4423   -2.4874 C   0  0  0  0  0  0  0  0  0  0  0  0
    4.5895   -0.4456    0.0462 C   0  0  0  0  0  0  0  0  0  0  0  0
    8.5459   -4.7669   -0.6966 H   0  0  0  0  0  0  0  0  0  0  0  0
    9.8189   -4.0708   -1.6131 H   0  0  0  0  0  0  0  0  0  0  0  0
    8.1819   -3.8618   -2.1968 H   0  0  0  0  0  0  0  0  0  0  0  0
    8.9804   -1.8070   -1.1108 H   0  0  0  0  0  0  0  0  0  0  0  0
    9.2314   -3.4353    1.4076 H   0  0  0  0  0  0  0  0  0  0  0  0
    9.4669   -1.6658    1.2424 H   0  0  0  0  0  0  0  0  0  0  0  0
   10.5531   -2.7613    0.4499 H   0  0  0  0  0  0  0  0  0  0  0  0
    7.1331   -1.4590    0.5308 H   0  0  0  0  0  0  0  0  0  0  0  0
    6.8265   -4.4595    0.3437 H   0  0  0  0  0  0  0  0  0  0  0  0
    6.3627   -3.3943    1.6624 H   0  0  0  0  0  0  0  0  0  0  0  0
    5.1317   -5.5078   -1.0516 H   0  0  0  0  0  0  0  0  0  0  0  0
    3.4690   -5.0362   -0.7054 H   0  0  0  0  0  0  0  0  0  0  0  0
    4.5034   -5.6082    0.5904 H   0  0  0  0  0  0  0  0  0  0  0  0
    3.2187   -2.7976    0.4845 H   0  0  0  0  0  0  0  0  0  0  0  0
    6.7965   -1.9190   -2.2792 H   0  0  0  0  0  0  0  0  0  0  0  0
    4.8878    0.5524   -2.5738 H   0  0  0  0  0  0  0  0  0  0  0  0
    3.3878   -0.3867   -2.4795 H   0  0  0  0  0  0  0  0  0  0  0  0
    4.7821   -0.9612   -3.3907 H   0  0  0  0  0  0  0  0  0  0  0  0
    4.9996    0.5385    0.0982 H   0  0  0  0  0  0  0  0  0  0  0  0
    5.0251   -0.9147    0.9256 H   0  0  0  0  0  0  0  0  0  0  0  0
    3.5063   -0.3845    0.1566 H   0  0  0  0  0  0  0  0  0  0  0  0
  1  2  1  0
  1 16  1  0
  1 17  1  0
  1 18  1  0
  2  3  1  0
  2  4  1  0
  2 19  1  0
  3 20  1  0
  3 21  1  0
  3 22  1  0
  4 12  1  0
  4  5  1  0
  4 23  1  1
  5  6  1  0
  5 24  1  0
  5 25  1  0
  6  7  1  0
  6  8  1  1
  6  9  1  0
  7 26  1  0
  7 27  1  0
  7 28  1  0
  8 29  1  0
  9 13  1  0
  9 10  1  6
  9 12  1  0
 10 11  3  0
 12 13  1  0
 12 30  1  6
 13 14  1  0
 13 15  1  0
 14 31  1  0
 14 32  1  0
 14 33  1  0
 15 34  1  0
 15 35  1  0
 15 36  1  0
M  END
>  <i_m_ct_stereo_status>  (107) 
1

>  <s_m_source_file>  (107) 
/var/tmp/pbs.5083858.sched01/tmp79lo_wn1/45k2ce5rku.sdf

>  <i_m_source_file_index>  (107) 
1

>  <i_lp_mmshare_version>  (107) 
48012

>  <i_f3d_flags>  (107) 
0

>  <s_epik_input>  (107) 
W0NIM11bQ0BAXTEoW09IXSlbQ0gyXVtDQEBIXShbQ0hdKFtDSDNdKVtDSDNdKVtDQEBIXShDMTJDI04pQzIoW0NIM10pW0NIM10=

>  <s_epik_cmdline>  (107) 
J2VwaWtfcHl0aG9uJywgJy1waHQnLCAnMi4wJywgJy1waCcsICc3LjAnLCAnLXRuJywgJzgnLCAnLW1hJywgJzIwMCcsICctaW1hZScsICc8aW5maWxlLm1hZT4nLCAnLW9tYWUnLCAnPG91dGZpbGUubWFlPic=

>  <r_lp_tautomer_probability>  (107) 
1

>  <r_epik_Ionization_Penalty>  (107) 
3.17056e-08

>  <r_epik_Ionization_Penalty_Charging>  (107) 
0

>  <r_epik_Ionization_Penalty_Neutral>  (107) 
3.17056e-08

>  <r_epik_State_Penalty>  (107) 
-0

>  <r_epik_Charging_Adjusted_Penalty>  (107) 
0

>  <i_epik_Tot_Q>  (107) 
0

>  <i_epik_Tot_abs_Q>  (107) 
0

>  <s_lp_Force_Field>  (107) 
OPLS3e

>  <r_lp_Energy>  (107) 
11.0342

>  <b_lp_Chiralities_Consistent>  (107) 
1

>  <s_lp_Variant>  (107) 
32:0-1

>  <s_i_glide_gridfile>  (107) 
pfpi4k_grid

>  <i_i_glide_lignum>  (107) 
1

>  <i_i_glide_rotatable_bonds>  (107) 
3

>  <r_i_docking_score>  (107) 
-3.04539

>  <r_i_glide_ligand_efficiency>  (107) 
-0.203026

>  <r_i_glide_ligand_efficiency_sa>  (107) 
-0.500705

>  <r_i_glide_ligand_efficiency_ln>  (107) 
-0.821291

>  <r_i_glide_gscore>  (107) 
-3.04539

>  <r_i_glide_lipo>  (107) 
-0.226606

>  <r_i_glide_hbond>  (107) 
0

>  <r_i_glide_metal>  (107) 
-0

>  <r_i_glide_rewards>  (107) 
-2.03384

>  <r_i_glide_evdw>  (107) 
-12.6616

>  <r_i_glide_ecoul>  (107) 
-1.01245

>  <r_i_glide_erotb>  (107) 
0

>  <r_i_glide_esite>  (107) 
0

>  <r_i_glide_emodel>  (107) 
-11.0193

>  <r_i_glide_energy>  (107) 
-13.674

>  <r_i_glide_einternal>  (107) 
9.01757

>  <r_i_glide_intrahb_reward>  (107) 
-0

>  <i_i_glide_confnum>  (107) 
2

>  <i_i_glide_posenum>  (107) 
4

>  <r_i_glide_eff_state_penalty>  (107) 
0

>  <ligand_id>  (107) 
32

>  <original_smiles>  (107) 
CC(C)C1CC(C)(O)C2(C#N)C1C2(C)C

>  <smiles>  (107) 
[H]OC1(C([H])([H])[H])C([H])([H])C([H])(C([H])(C([H])([H])[H])C([H])([H])[H])C2([H])C1(C#N)C2(C([H])([H])[H])C([H])([H])[H]

$$$$
32:0:2
     RDKit          3D

 36 37  0  0  1  0  0  0  0  0999 V2000
    8.5988   -3.7522   -1.3017 C   0  0  0  0  0  0  0  0  0  0  0  0
    8.2416   -2.3279   -0.8527 C   0  0  0  0  0  0  0  0  0  0  0  0
    8.8711   -2.0272    0.4968 C   0  0  0  0  0  0  0  0  0  0  0  0
    6.7050   -2.0159   -0.8179 C   0  0  2  0  0  0  0  0  0  0  0  0
    5.8577   -2.9520    0.0964 C   0  0  0  0  0  0  0  0  0  0  0  0
    4.5781   -3.3218   -0.6873 C   0  0  1  0  0  0  0  0  0  0  0  0
    4.2286   -4.7833   -0.5395 C   0  0  0  0  0  0  0  0  0  0  0  0
    3.4613   -2.6705   -0.0823 O   0  0  0  0  0  0  0  0  0  0  0  0
    4.8353   -2.8963   -2.1413 C   0  0  2  0  0  0  0  0  0  0  0  0
    4.6717   -3.8199   -3.2540 C   0  0  0  0  0  0  0  0  0  0  0  0
    4.5819   -4.5154   -4.1882 N   0  0  0  0  0  0  0  0  0  0  0  0
    6.0973   -2.1018   -2.2032 C   0  0  1  0  0  0  0  0  0  0  0  0
    4.7870   -1.4435   -2.6071 C   0  0  0  0  0  0  0  0  0  0  0  0
    4.4114   -1.1544   -4.0610 C   0  0  0  0  0  0  0  0  0  0  0  0
    4.2074   -0.3444   -1.7952 C   0  0  0  0  0  0  0  0  0  0  0  0
    8.1816   -4.5200   -0.6503 H   0  0  0  0  0  0  0  0  0  0  0  0
    9.6765   -3.8926   -1.3523 H   0  0  0  0  0  0  0  0  0  0  0  0
    8.2278   -3.8785   -2.3130 H   0  0  0  0  0  0  0  0  0  0  0  0
    8.8032   -1.7121   -1.5541 H   0  0  0  0  0  0  0  0  0  0  0  0
    8.4237   -2.7063    1.2176 H   0  0  0  0  0  0  0  0  0  0  0  0
    8.6799   -0.9992    0.8168 H   0  0  0  0  0  0  0  0  0  0  0  0
    9.9532   -2.1772    0.4903 H   0  0  0  0  0  0  0  0  0  0  0  0
    6.5979   -0.9867   -0.4452 H   0  0  0  0  0  0  0  0  0  0  0  0
    6.4042   -3.8824    0.2708 H   0  0  0  0  0  0  0  0  0  0  0  0
    5.6669   -2.4901    1.0741 H   0  0  0  0  0  0  0  0  0  0  0  0
    4.9738   -5.4389   -0.9924 H   0  0  0  0  0  0  0  0  0  0  0  0
    3.2674   -4.9137   -1.0208 H   0  0  0  0  0  0  0  0  0  0  0  0
    4.1056   -5.0535    0.4986 H   0  0  0  0  0  0  0  0  0  0  0  0
    2.8029   -2.4298   -0.7262 H   0  0  0  0  0  0  0  0  0  0  0  0
    6.7781   -2.4758   -2.9520 H   0  0  0  0  0  0  0  0  0  0  0  0
    4.7569   -0.1967   -4.4241 H   0  0  0  0  0  0  0  0  0  0  0  0
    3.3293   -1.1839   -4.1919 H   0  0  0  0  0  0  0  0  0  0  0  0
    4.8658   -1.8813   -4.7142 H   0  0  0  0  0  0  0  0  0  0  0  0
    4.5585    0.5403   -2.2790 H   0  0  0  0  0  0  0  0  0  0  0  0
    4.4723   -0.4238   -0.7490 H   0  0  0  0  0  0  0  0  0  0  0  0
    3.1491   -0.5106   -1.9200 H   0  0  0  0  0  0  0  0  0  0  0  0
  1  2  1  0
  1 16  1  0
  1 17  1  0
  1 18  1  0
  2  3  1  0
  2  4  1  0
  2 19  1  0
  3 20  1  0
  3 21  1  0
  3 22  1  0
  4 12  1  0
  4  5  1  0
  4 23  1  1
  5  6  1  0
  5 24  1  0
  5 25  1  0
  6  7  1  0
  6  8  1  1
  6  9  1  0
  7 26  1  0
  7 27  1  0
  7 28  1  0
  8 29  1  0
  9 13  1  0
  9 10  1  6
  9 12  1  0
 10 11  3  0
 12 13  1  0
 12 30  1  6
 13 14  1  0
 13 15  1  0
 14 31  1  0
 14 32  1  0
 14 33  1  0
 15 34  1  0
 15 35  1  0
 15 36  1  0
M  END
>  <i_m_ct_stereo_status>  (108) 
1

>  <s_m_source_file>  (108) 
/var/tmp/pbs.5083858.sched01/tmp79lo_wn1/45k2ce5rku.sdf

>  <i_m_source_file_index>  (108) 
1

>  <i_lp_mmshare_version>  (108) 
48012

>  <i_f3d_flags>  (108) 
0

>  <s_epik_input>  (108) 
W0NIM11bQ0BAXTEoW09IXSlbQ0gyXVtDQEBIXShbQ0hdKFtDSDNdKVtDSDNdKVtDQEBIXShDMTJDI04pQzIoW0NIM10pW0NIM10=

>  <s_epik_cmdline>  (108) 
J2VwaWtfcHl0aG9uJywgJy1waHQnLCAnMi4wJywgJy1waCcsICc3LjAnLCAnLXRuJywgJzgnLCAnLW1hJywgJzIwMCcsICctaW1hZScsICc8aW5maWxlLm1hZT4nLCAnLW9tYWUnLCAnPG91dGZpbGUubWFlPic=

>  <r_lp_tautomer_probability>  (108) 
1

>  <r_epik_Ionization_Penalty>  (108) 
3.17056e-08

>  <r_epik_Ionization_Penalty_Charging>  (108) 
0

>  <r_epik_Ionization_Penalty_Neutral>  (108) 
3.17056e-08

>  <r_epik_State_Penalty>  (108) 
-0

>  <r_epik_Charging_Adjusted_Penalty>  (108) 
0

>  <i_epik_Tot_Q>  (108) 
0

>  <i_epik_Tot_abs_Q>  (108) 
0

>  <s_lp_Force_Field>  (108) 
OPLS3e

>  <r_lp_Energy>  (108) 
11.0342

>  <b_lp_Chiralities_Consistent>  (108) 
1

>  <s_lp_Variant>  (108) 
32:0-1

>  <s_i_glide_gridfile>  (108) 
pfpi4k_grid

>  <i_i_glide_lignum>  (108) 
1

>  <i_i_glide_rotatable_bonds>  (108) 
3

>  <r_i_docking_score>  (108) 
-2.60069

>  <r_i_glide_ligand_efficiency>  (108) 
-0.17338

>  <r_i_glide_ligand_efficiency_sa>  (108) 
-0.427591

>  <r_i_glide_ligand_efficiency_ln>  (108) 
-0.701364

>  <r_i_glide_gscore>  (108) 
-2.60069

>  <r_i_glide_lipo>  (108) 
-0.20423

>  <r_i_glide_hbond>  (108) 
0

>  <r_i_glide_metal>  (108) 
-0

>  <r_i_glide_rewards>  (108) 
-2.00998

>  <r_i_glide_evdw>  (108) 
-0.657097

>  <r_i_glide_ecoul>  (108) 
-2.35752

>  <r_i_glide_erotb>  (108) 
0

>  <r_i_glide_esite>  (108) 
0

>  <r_i_glide_emodel>  (108) 
-1.00787

>  <r_i_glide_energy>  (108) 
-3.01461

>  <r_i_glide_einternal>  (108) 
5.4622

>  <r_i_glide_intrahb_reward>  (108) 
-0

>  <i_i_glide_confnum>  (108) 
4

>  <i_i_glide_posenum>  (108) 
20

>  <r_i_glide_eff_state_penalty>  (108) 
0

>  <ligand_id>  (108) 
32

>  <original_smiles>  (108) 
CC(C)C1CC(C)(O)C2(C#N)C1C2(C)C

>  <smiles>  (108) 
[H]OC1(C([H])([H])[H])C([H])([H])C([H])(C([H])(C([H])([H])[H])C([H])([H])[H])C2([H])C1(C#N)C2(C([H])([H])[H])C([H])([H])[H]

$$$$
34:0:0
     RDKit          3D

 23 24  0  0  1  0  0  0  0  0999 V2000
    3.9402   -0.4158   -4.4082 C   0  0  0  0  0  0  0  0  0  0  0  0
    3.7765   -1.2607   -3.1934 C   0  0  0  0  0  0  0  0  0  0  0  0
    4.4777   -0.9727   -2.0333 N   0  0  0  0  0  0  0  0  0  0  0  0
    4.0909   -1.8748   -1.1296 C   0  0  0  0  0  0  0  0  0  0  0  0
    4.4507   -2.0788    0.2304 C   0  0  0  0  0  0  0  0  0  0  0  0
    5.4372   -1.1223    0.8797 C   0  0  0  0  0  0  0  0  0  0  0  0
    5.7593   -1.5063    2.1148 F   0  0  0  0  0  0  0  0  0  0  0  0
    6.5552   -1.0632    0.1544 F   0  0  0  0  0  0  0  0  0  0  0  0
    4.8915    0.0904    0.9397 F   0  0  0  0  0  0  0  0  0  0  0  0
    3.9125   -3.1302    0.9414 C   0  0  0  0  0  0  0  0  0  0  0  0
    2.9969   -4.0095    0.3174 C   0  0  0  0  0  0  0  0  0  0  0  0
    2.6275   -3.8109   -0.9903 C   0  0  0  0  0  0  0  0  0  0  0  0
    3.1683   -2.7804   -1.7035 N   0  0  0  0  0  0  0  0  0  0  0  0
    3.0136   -2.3788   -3.0253 C   0  0  0  0  0  0  0  0  0  0  0  0
    2.1986   -3.0552   -3.9181 N   0  0  0  0  0  0  0  0  0  0  0  0
    3.3424   -0.7604   -5.2532 H   0  0  0  0  0  0  0  0  0  0  0  0
    4.9783   -0.4456   -4.7179 H   0  0  0  0  0  0  0  0  0  0  0  0
    3.6715    0.6196   -4.2076 H   0  0  0  0  0  0  0  0  0  0  0  0
    4.1903   -3.2965    1.9775 H   0  0  0  0  0  0  0  0  0  0  0  0
    2.5879   -4.8533    0.8682 H   0  0  0  0  0  0  0  0  0  0  0  0
    1.9363   -4.4586   -1.5204 H   0  0  0  0  0  0  0  0  0  0  0  0
    1.9968   -2.7395   -4.8611 H   0  0  0  0  0  0  0  0  0  0  0  0
    1.6170   -3.8463   -3.6660 H   0  0  0  0  0  0  0  0  0  0  0  0
  1  2  1  0
  1 16  1  0
  1 17  1  0
  1 18  1  0
  2 14  2  0
  2  3  1  0
  3  4  2  0
  4 13  1  0
  4  5  1  0
  5  6  1  0
  5 10  2  0
  6  7  1  0
  6  8  1  0
  6  9  1  0
 10 11  1  0
 10 19  1  0
 11 12  2  0
 11 20  1  0
 12 13  1  0
 12 21  1  0
 13 14  1  0
 14 15  1  0
 15 22  1  0
 15 23  1  0
M  END
>  <i_m_ct_stereo_status>  (109) 
1

>  <s_m_source_file>  (109) 
/var/tmp/pbs.5083858.sched01/tmp79lo_wn1/45k2ce5rku.sdf

>  <i_m_source_file_index>  (109) 
3

>  <i_lp_mmshare_version>  (109) 
48012

>  <i_f3d_flags>  (109) 
0

>  <s_epik_input>  (109) 
W0NIM11jKG4xKWMoW05IMl0pbihjMTIpW2NIXVtjSF1bY0hdYzJDKEYpKEYpRg==

>  <s_epik_cmdline>  (109) 
J2VwaWtfcHl0aG9uJywgJy1waHQnLCAnMi4wJywgJy1waCcsICc3LjAnLCAnLXRuJywgJzgnLCAnLW1hJywgJzIwMCcsICctaW1hZScsICc8aW5maWxlLm1hZT4nLCAnLW9tYWUnLCAnPG91dGZpbGUubWFlPic=

>  <r_epik_Ionization_Penalty>  (109) 
0.00619615

>  <r_epik_Ionization_Penalty_Charging>  (109) 
0.00611554

>  <r_epik_Ionization_Penalty_Neutral>  (109) 
8.06077e-05

>  <r_epik_State_Penalty>  (109) 
0.00450752

>  <r_epik_Charging_Adjusted_Penalty>  (109) 
0.0106231

>  <i_epik_Tot_Q>  (109) 
0

>  <i_epik_Tot_abs_Q>  (109) 
0

>  <s_lp_Force_Field>  (109) 
OPLS3e

>  <r_lp_Energy>  (109) 
14.6982

>  <b_lp_Chiralities_Consistent>  (109) 
1

>  <s_lp_Variant>  (109) 
34:0-1

>  <s_i_glide_gridfile>  (109) 
pfpi4k_grid

>  <i_i_glide_lignum>  (109) 
3

>  <i_i_glide_rotatable_bonds>  (109) 
1

>  <r_i_docking_score>  (109) 
-5.17472

>  <r_i_glide_ligand_efficiency>  (109) 
-0.344981

>  <r_i_glide_ligand_efficiency_sa>  (109) 
-0.850797

>  <r_i_glide_ligand_efficiency_ln>  (109) 
-1.39554

>  <r_i_glide_gscore>  (109) 
-5.17472

>  <r_i_glide_lipo>  (109) 
-0.502525

>  <r_i_glide_hbond>  (109) 
-0.603186

>  <r_i_glide_metal>  (109) 
-0

>  <r_i_glide_rewards>  (109) 
-2.23721

>  <r_i_glide_evdw>  (109) 
-19.9584

>  <r_i_glide_ecoul>  (109) 
-4.99142

>  <r_i_glide_erotb>  (109) 
0

>  <r_i_glide_esite>  (109) 
-0.0851689

>  <r_i_glide_emodel>  (109) 
-32.6662

>  <r_i_glide_energy>  (109) 
-24.9498

>  <r_i_glide_einternal>  (109) 
0.0044281

>  <r_i_glide_intrahb_reward>  (109) 
-0

>  <i_i_glide_confnum>  (109) 
2

>  <i_i_glide_posenum>  (109) 
8

>  <r_i_glide_eff_state_penalty>  (109) 
0

>  <ligand_id>  (109) 
34

>  <original_smiles>  (109) 
Cc1nc2c(C(F)(F)F)cccn2c1N

>  <smiles>  (109) 
[H]c1c([H])c([H])n2c(N([H])[H])c(C([H])([H])[H])nc2c1C(F)(F)F

$$$$
34:0:1
     RDKit          3D

 23 24  0  0  1  0  0  0  0  0999 V2000
    2.6036   -2.8824   -3.7735 C   0  0  0  0  0  0  0  0  0  0  0  0
    3.1899   -2.5468   -2.4428 C   0  0  0  0  0  0  0  0  0  0  0  0
    3.0713   -3.4457   -1.3965 N   0  0  0  0  0  0  0  0  0  0  0  0
    3.6642   -2.8888   -0.3463 C   0  0  0  0  0  0  0  0  0  0  0  0
    3.8590   -3.3370    0.9920 C   0  0  0  0  0  0  0  0  0  0  0  0
    3.3419   -4.7011    1.4280 C   0  0  0  0  0  0  0  0  0  0  0  0
    2.2938   -5.1032    0.7096 F   0  0  0  0  0  0  0  0  0  0  0  0
    4.3212   -5.5954    1.2986 F   0  0  0  0  0  0  0  0  0  0  0  0
    2.9591   -4.6636    2.7041 F   0  0  0  0  0  0  0  0  0  0  0  0
    4.5426   -2.5433    1.8863 C   0  0  0  0  0  0  0  0  0  0  0  0
    5.0428   -1.2821    1.4892 C   0  0  0  0  0  0  0  0  0  0  0  0
    4.8516   -0.8354    0.2009 C   0  0  0  0  0  0  0  0  0  0  0  0
    4.1872   -1.6202   -0.6992 N   0  0  0  0  0  0  0  0  0  0  0  0
    3.8804   -1.4333   -2.0428 C   0  0  0  0  0  0  0  0  0  0  0  0
    4.2487   -0.2877   -2.7397 N   0  0  0  0  0  0  0  0  0  0  0  0
    2.7722   -2.0864   -4.4967 H   0  0  0  0  0  0  0  0  0  0  0  0
    1.5299   -3.0427   -3.6980 H   0  0  0  0  0  0  0  0  0  0  0  0
    3.0415   -3.7964   -4.1675 H   0  0  0  0  0  0  0  0  0  0  0  0
    4.7007   -2.8869    2.9042 H   0  0  0  0  0  0  0  0  0  0  0  0
    5.5791   -0.6527    2.1952 H   0  0  0  0  0  0  0  0  0  0  0  0
    5.2054    0.1283   -0.1460 H   0  0  0  0  0  0  0  0  0  0  0  0
    3.9430   -0.0959   -3.6838 H   0  0  0  0  0  0  0  0  0  0  0  0
    4.6729    0.5135   -2.2938 H   0  0  0  0  0  0  0  0  0  0  0  0
  1  2  1  0
  1 16  1  0
  1 17  1  0
  1 18  1  0
  2 14  2  0
  2  3  1  0
  3  4  2  0
  4 13  1  0
  4  5  1  0
  5  6  1  0
  5 10  2  0
  6  7  1  0
  6  8  1  0
  6  9  1  0
 10 11  1  0
 10 19  1  0
 11 12  2  0
 11 20  1  0
 12 13  1  0
 12 21  1  0
 13 14  1  0
 14 15  1  0
 15 22  1  0
 15 23  1  0
M  END
>  <i_m_ct_stereo_status>  (110) 
1

>  <s_m_source_file>  (110) 
/var/tmp/pbs.5083858.sched01/tmp79lo_wn1/45k2ce5rku.sdf

>  <i_m_source_file_index>  (110) 
3

>  <i_lp_mmshare_version>  (110) 
48012

>  <i_f3d_flags>  (110) 
0

>  <s_epik_input>  (110) 
W0NIM11jKG4xKWMoW05IMl0pbihjMTIpW2NIXVtjSF1bY0hdYzJDKEYpKEYpRg==

>  <s_epik_cmdline>  (110) 
J2VwaWtfcHl0aG9uJywgJy1waHQnLCAnMi4wJywgJy1waCcsICc3LjAnLCAnLXRuJywgJzgnLCAnLW1hJywgJzIwMCcsICctaW1hZScsICc8aW5maWxlLm1hZT4nLCAnLW9tYWUnLCAnPG91dGZpbGUubWFlPic=

>  <r_epik_Ionization_Penalty>  (110) 
0.00619615

>  <r_epik_Ionization_Penalty_Charging>  (110) 
0.00611554

>  <r_epik_Ionization_Penalty_Neutral>  (110) 
8.06077e-05

>  <r_epik_State_Penalty>  (110) 
0.00450752

>  <r_epik_Charging_Adjusted_Penalty>  (110) 
0.0106231

>  <i_epik_Tot_Q>  (110) 
0

>  <i_epik_Tot_abs_Q>  (110) 
0

>  <s_lp_Force_Field>  (110) 
OPLS3e

>  <r_lp_Energy>  (110) 
14.6982

>  <b_lp_Chiralities_Consistent>  (110) 
1

>  <s_lp_Variant>  (110) 
34:0-1

>  <s_i_glide_gridfile>  (110) 
pfpi4k_grid

>  <i_i_glide_lignum>  (110) 
3

>  <i_i_glide_rotatable_bonds>  (110) 
1

>  <r_i_docking_score>  (110) 
-3.80558

>  <r_i_glide_ligand_efficiency>  (110) 
-0.253706

>  <r_i_glide_ligand_efficiency_sa>  (110) 
-0.625692

>  <r_i_glide_ligand_efficiency_ln>  (110) 
-1.0263

>  <r_i_glide_gscore>  (110) 
-3.80558

>  <r_i_glide_lipo>  (110) 
-0.379896

>  <r_i_glide_hbond>  (110) 
-0.307416

>  <r_i_glide_metal>  (110) 
-0

>  <r_i_glide_rewards>  (110) 
-2.00008

>  <r_i_glide_evdw>  (110) 
-18.1405

>  <r_i_glide_ecoul>  (110) 
-0.723714

>  <r_i_glide_erotb>  (110) 
0

>  <r_i_glide_esite>  (110) 
-0.102613

>  <r_i_glide_emodel>  (110) 
-24.3922

>  <r_i_glide_energy>  (110) 
-18.8642

>  <r_i_glide_einternal>  (110) 
0.189893

>  <r_i_glide_intrahb_reward>  (110) 
-0

>  <i_i_glide_confnum>  (110) 
2

>  <i_i_glide_posenum>  (110) 
5

>  <r_i_glide_eff_state_penalty>  (110) 
0

>  <ligand_id>  (110) 
34

>  <original_smiles>  (110) 
Cc1nc2c(C(F)(F)F)cccn2c1N

>  <smiles>  (110) 
[H]c1c([H])c([H])n2c(N([H])[H])c(C([H])([H])[H])nc2c1C(F)(F)F

$$$$
34:0:2
     RDKit          3D

 23 24  0  0  1  0  0  0  0  0999 V2000
    1.0019    7.5593    4.9651 C   0  0  0  0  0  0  0  0  0  0  0  0
    1.0447    6.1793    4.3910 C   0  0  0  0  0  0  0  0  0  0  0  0
   -0.0866    5.3801    4.4464 N   0  0  0  0  0  0  0  0  0  0  0  0
    0.2502    4.2195    3.8841 C   0  0  0  0  0  0  0  0  0  0  0  0
   -0.4768    3.0121    3.6789 C   0  0  0  0  0  0  0  0  0  0  0  0
   -1.9239    2.9046    4.1329 C   0  0  0  0  0  0  0  0  0  0  0  0
   -2.7288    3.2532    3.1290 F   0  0  0  0  0  0  0  0  0  0  0  0
   -2.1838    1.6490    4.4981 F   0  0  0  0  0  0  0  0  0  0  0  0
   -2.1917    3.6842    5.1811 F   0  0  0  0  0  0  0  0  0  0  0  0
    0.1280    1.9498    3.0414 C   0  0  0  0  0  0  0  0  0  0  0  0
    1.4784    2.0351    2.6271 C   0  0  0  0  0  0  0  0  0  0  0  0
    2.1999    3.1876    2.8460 C   0  0  0  0  0  0  0  0  0  0  0  0
    1.6011    4.2553    3.4512 N   0  0  0  0  0  0  0  0  0  0  0  0
    2.0855    5.5114    3.7957 C   0  0  0  0  0  0  0  0  0  0  0  0
    3.3994    5.8975    3.5410 N   0  0  0  0  0  0  0  0  0  0  0  0
    1.9493    8.0858    4.8450 H   0  0  0  0  0  0  0  0  0  0  0  0
    0.7675    7.5301    6.0297 H   0  0  0  0  0  0  0  0  0  0  0  0
    0.2329    8.1555    4.4797 H   0  0  0  0  0  0  0  0  0  0  0  0
   -0.4336    1.0389    2.8479 H   0  0  0  0  0  0  0  0  0  0  0  0
    1.9553    1.2019    2.1179 H   0  0  0  0  0  0  0  0  0  0  0  0
    3.2309    3.3160    2.5347 H   0  0  0  0  0  0  0  0  0  0  0  0
    3.7529    6.8194    3.7509 H   0  0  0  0  0  0  0  0  0  0  0  0
    4.0612    5.3251    3.0382 H   0  0  0  0  0  0  0  0  0  0  0  0
  1  2  1  0
  1 16  1  0
  1 17  1  0
  1 18  1  0
  2 14  2  0
  2  3  1  0
  3  4  2  0
  4 13  1  0
  4  5  1  0
  5  6  1  0
  5 10  2  0
  6  7  1  0
  6  8  1  0
  6  9  1  0
 10 11  1  0
 10 19  1  0
 11 12  2  0
 11 20  1  0
 12 13  1  0
 12 21  1  0
 13 14  1  0
 14 15  1  0
 15 22  1  0
 15 23  1  0
M  END
>  <i_m_ct_stereo_status>  (111) 
1

>  <s_m_source_file>  (111) 
/var/tmp/pbs.5083858.sched01/tmp79lo_wn1/45k2ce5rku.sdf

>  <i_m_source_file_index>  (111) 
3

>  <i_lp_mmshare_version>  (111) 
48012

>  <i_f3d_flags>  (111) 
0

>  <s_epik_input>  (111) 
W0NIM11jKG4xKWMoW05IMl0pbihjMTIpW2NIXVtjSF1bY0hdYzJDKEYpKEYpRg==

>  <s_epik_cmdline>  (111) 
J2VwaWtfcHl0aG9uJywgJy1waHQnLCAnMi4wJywgJy1waCcsICc3LjAnLCAnLXRuJywgJzgnLCAnLW1hJywgJzIwMCcsICctaW1hZScsICc8aW5maWxlLm1hZT4nLCAnLW9tYWUnLCAnPG91dGZpbGUubWFlPic=

>  <r_epik_Ionization_Penalty>  (111) 
0.00619615

>  <r_epik_Ionization_Penalty_Charging>  (111) 
0.00611554

>  <r_epik_Ionization_Penalty_Neutral>  (111) 
8.06077e-05

>  <r_epik_State_Penalty>  (111) 
0.00450752

>  <r_epik_Charging_Adjusted_Penalty>  (111) 
0.0106231

>  <i_epik_Tot_Q>  (111) 
0

>  <i_epik_Tot_abs_Q>  (111) 
0

>  <s_lp_Force_Field>  (111) 
OPLS3e

>  <r_lp_Energy>  (111) 
14.6982

>  <b_lp_Chiralities_Consistent>  (111) 
1

>  <s_lp_Variant>  (111) 
34:0-1

>  <s_i_glide_gridfile>  (111) 
pfpi4k_grid

>  <i_i_glide_lignum>  (111) 
3

>  <i_i_glide_rotatable_bonds>  (111) 
1

>  <r_i_docking_score>  (111) 
-3.61095

>  <r_i_glide_ligand_efficiency>  (111) 
-0.24073

>  <r_i_glide_ligand_efficiency_sa>  (111) 
-0.593691

>  <r_i_glide_ligand_efficiency_ln>  (111) 
-0.973813

>  <r_i_glide_gscore>  (111) 
-3.61095

>  <r_i_glide_lipo>  (111) 
0

>  <r_i_glide_hbond>  (111) 
0

>  <r_i_glide_metal>  (111) 
-0

>  <r_i_glide_rewards>  (111) 
-1.94199

>  <r_i_glide_evdw>  (111) 
-16.4436

>  <r_i_glide_ecoul>  (111) 
-3.99018

>  <r_i_glide_erotb>  (111) 
0

>  <r_i_glide_esite>  (111) 
-0.248254

>  <r_i_glide_emodel>  (111) 
-25.5531

>  <r_i_glide_energy>  (111) 
-20.4338

>  <r_i_glide_einternal>  (111) 
0.454133

>  <r_i_glide_intrahb_reward>  (111) 
-0

>  <i_i_glide_confnum>  (111) 
2

>  <i_i_glide_posenum>  (111) 
31

>  <r_i_glide_eff_state_penalty>  (111) 
0

>  <ligand_id>  (111) 
34

>  <original_smiles>  (111) 
Cc1nc2c(C(F)(F)F)cccn2c1N

>  <smiles>  (111) 
[H]c1c([H])c([H])n2c(N([H])[H])c(C([H])([H])[H])nc2c1C(F)(F)F

$$$$
35:0:0
     RDKit          3D

 47 51  0  0  1  0  0  0  0  0999 V2000
    4.2140   -3.8583    4.2527 C   0  0  0  0  0  0  0  0  0  0  0  0
    4.4330   -3.3147    2.7592 C   0  0  0  0  0  0  0  0  0  0  0  0
    4.9671   -1.9003    3.3120 C   0  0  0  0  0  0  0  0  0  0  0  0
    5.5722   -3.8651    1.8462 C   0  0  1  0  0  0  0  0  0  0  0  0
    5.0954   -5.3348    2.0939 C   0  0  0  0  0  0  0  0  0  0  0  0
    3.5194   -5.1806    2.0047 C   0  0  0  0  0  0  0  0  0  0  0  0
    3.1830   -3.6315    1.6524 C   0  0  1  0  0  0  0  0  0  0  0  0
    3.9081   -2.4430    0.9705 C   0  0  0  0  0  0  0  0  0  0  0  0
    5.1344   -3.1912    0.4495 C   0  0  2  0  0  0  0  0  0  0  0  0
    4.4972   -4.2766   -0.2977 C   0  0  0  0  0  0  0  0  0  0  0  0
    5.0807   -5.2172   -0.8286 O   0  0  0  0  0  0  0  0  0  0  0  0
    3.1402   -4.1124    0.0831 C   0  0  0  0  0  0  0  0  0  0  0  0
    2.5292   -3.5398   -1.0030 C   0  0  0  0  0  0  0  0  0  0  0  0
    3.2111   -2.5189   -1.9667 C   0  0  2  0  0  0  0  0  0  0  0  0
    4.2538   -2.5689   -3.0705 C   0  0  0  0  0  0  0  0  0  0  0  0
    4.9132   -3.8307   -3.5478 C   0  0  0  0  0  0  0  0  0  0  0  0
    3.9559   -1.7253   -4.3049 C   0  0  0  0  0  0  0  0  0  0  0  0
    4.6357   -1.8705   -1.7498 C   0  0  1  0  0  0  0  0  0  0  0  0
    4.6274   -0.3686   -1.7859 C   0  0  0  0  0  0  0  0  0  0  0  0
    5.7715   -2.3897   -0.7164 C   0  0  1  0  0  0  0  0  0  0  0  0
    6.5698   -1.3704   -0.1398 O   0  0  0  0  0  0  0  0  0  0  0  0
    5.1083   -3.7808    4.8723 H   0  0  0  0  0  0  0  0  0  0  0  0
    3.9406   -4.8908    4.4464 H   0  0  0  0  0  0  0  0  0  0  0  0
    3.4403   -3.2738    4.7506 H   0  0  0  0  0  0  0  0  0  0  0  0
    5.6230   -1.3670    2.6189 H   0  0  0  0  0  0  0  0  0  0  0  0
    5.6229   -1.9599    4.1772 H   0  0  0  0  0  0  0  0  0  0  0  0
    4.1453   -1.2401    3.5962 H   0  0  0  0  0  0  0  0  0  0  0  0
    6.5975   -3.6726    2.1647 H   0  0  0  0  0  0  0  0  0  0  0  0
    5.5074   -6.0630    1.3953 H   0  0  0  0  0  0  0  0  0  0  0  0
    5.4116   -5.7119    3.0622 H   0  0  0  0  0  0  0  0  0  0  0  0
    3.1499   -5.9595    1.3263 H   0  0  0  0  0  0  0  0  0  0  0  0
    2.9745   -5.5226    2.8695 H   0  0  0  0  0  0  0  0  0  0  0  0
    3.2619   -1.8670    0.3300 H   0  0  0  0  0  0  0  0  0  0  0  0
    4.0435   -1.4507    1.3755 H   0  0  0  0  0  0  0  0  0  0  0  0
    1.5259   -3.2059   -0.8236 H   0  0  0  0  0  0  0  0  0  0  0  0
    2.4260   -1.8271   -2.2117 H   0  0  0  0  0  0  0  0  0  0  0  0
    5.1090   -3.8314   -4.6234 H   0  0  0  0  0  0  0  0  0  0  0  0
    4.2249   -4.6368   -3.3722 H   0  0  0  0  0  0  0  0  0  0  0  0
    5.8362   -4.0295   -3.0274 H   0  0  0  0  0  0  0  0  0  0  0  0
    4.8934   -1.3606   -4.7177 H   0  0  0  0  0  0  0  0  0  0  0  0
    3.3355   -0.8536   -4.1127 H   0  0  0  0  0  0  0  0  0  0  0  0
    3.4139   -2.3232   -5.0366 H   0  0  0  0  0  0  0  0  0  0  0  0
    5.5297    0.0027   -2.2645 H   0  0  0  0  0  0  0  0  0  0  0  0
    4.5444    0.0338   -0.7757 H   0  0  0  0  0  0  0  0  0  0  0  0
    3.8130    0.0443   -2.3657 H   0  0  0  0  0  0  0  0  0  0  0  0
    6.4841   -2.9971   -1.2691 H   0  0  0  0  0  0  0  0  0  0  0  0
    6.0253   -0.8861    0.4684 H   0  0  0  0  0  0  0  0  0  0  0  0
  1  2  1  0
  1 22  1  0
  1 23  1  0
  1 24  1  0
  2  7  1  0
  2  3  1  0
  2  4  1  0
  3 25  1  0
  3 26  1  0
  3 27  1  0
  4  9  1  0
  4  5  1  0
  4 28  1  1
  5  6  1  0
  5 29  1  0
  5 30  1  0
  7  6  1  1
  6 31  1  0
  6 32  1  0
  7 12  1  0
  7  8  1  0
  9  8  1  1
  8 33  1  0
  8 34  1  0
  9 20  1  0
  9 10  1  0
 10 11  2  0
 10 12  1  0
 12 13  2  0
 13 14  1  0
 13 35  1  0
 14 18  1  0
 14 15  1  0
 14 36  1  6
 15 16  1  0
 15 17  1  0
 15 18  1  0
 16 37  1  0
 16 38  1  0
 16 39  1  0
 17 40  1  0
 17 41  1  0
 17 42  1  0
 18 19  1  6
 18 20  1  0
 19 43  1  0
 19 44  1  0
 19 45  1  0
 20 21  1  0
 20 46  1  6
 21 47  1  0
M  END
>  <i_m_ct_stereo_status>  (112) 
1

>  <s_m_source_file>  (112) 
/var/tmp/pbs.5083858.sched01/tmp79lo_wn1/45k2ce5rku.sdf

>  <i_m_source_file_index>  (112) 
4

>  <i_lp_mmshare_version>  (112) 
48012

>  <i_f3d_flags>  (112) 
2

>  <s_epik_input>  (112) 
W0NIM11DMShbQ0gzXSlbQ0BASF0oW0NIMl1bQ0gyXTIpQyhbQ0gyXTMpKEM0PU8pW0NASF0oW09IXSlbQ0BdKFtDSDNdKShDNShbQ0gzXSlbQ0gzXSlbQ0BIXTVbQ0hdPUM0QzEyMw==

>  <s_epik_cmdline>  (112) 
J2VwaWtfcHl0aG9uJywgJy1waHQnLCAnMi4wJywgJy1waCcsICc3LjAnLCAnLXRuJywgJzgnLCAnLW1hJywgJzIwMCcsICctaW1hZScsICc8aW5maWxlLm1hZT4nLCAnLW9tYWUnLCAnPG91dGZpbGUubWFlPic=

>  <r_lp_tautomer_probability>  (112) 
1

>  <r_epik_Ionization_Penalty>  (112) 
7.49711e-08

>  <r_epik_Ionization_Penalty_Charging>  (112) 
0

>  <r_epik_Ionization_Penalty_Neutral>  (112) 
7.49711e-08

>  <r_epik_State_Penalty>  (112) 
-0

>  <r_epik_Charging_Adjusted_Penalty>  (112) 
0

>  <i_epik_Tot_Q>  (112) 
0

>  <i_epik_Tot_abs_Q>  (112) 
0

>  <s_lp_Force_Field>  (112) 
OPLS3e

>  <r_lp_Energy>  (112) 
362.998

>  <b_lp_Chiralities_Consistent>  (112) 
0

>  <s_lp_Variant>  (112) 
35:0-1

>  <s_i_glide_gridfile>  (112) 
pfpi4k_grid

>  <i_i_glide_lignum>  (112) 
4

>  <i_i_glide_rotatable_bonds>  (112) 
1

>  <r_i_docking_score>  (112) 
-2.91148

>  <r_i_glide_ligand_efficiency>  (112) 
-0.138642

>  <r_i_glide_ligand_efficiency_sa>  (112) 
-0.382502

>  <r_i_glide_ligand_efficiency_ln>  (112) 
-0.719857

>  <r_i_glide_gscore>  (112) 
-2.91148

>  <r_i_glide_lipo>  (112) 
-0.372061

>  <r_i_glide_hbond>  (112) 
-0.0879683

>  <r_i_glide_metal>  (112) 
-0

>  <r_i_glide_rewards>  (112) 
-1.45631

>  <r_i_glide_evdw>  (112) 
-15.4238

>  <r_i_glide_ecoul>  (112) 
-1.4762

>  <r_i_glide_erotb>  (112) 
0

>  <r_i_glide_esite>  (112) 
-0.00252385

>  <r_i_glide_emodel>  (112) 
-18.485

>  <r_i_glide_energy>  (112) 
-16.9

>  <r_i_glide_einternal>  (112) 
0.0459115

>  <r_i_glide_intrahb_reward>  (112) 
-0

>  <i_i_glide_confnum>  (112) 
1

>  <i_i_glide_posenum>  (112) 
18

>  <r_i_glide_eff_state_penalty>  (112) 
0

>  <ligand_id>  (112) 
35

>  <original_smiles>  (112) 
CC1(C)C2CCC13CC21C(=O)C3=CC2C(C)(C)C2(C)C1O

>  <smiles>  (112) 
[H]OC1([H])C23C(=O)C(=C([H])C4([H])C(C([H])([H])[H])(C([H])([H])[H])C14C([H])([H])[H])C1(C([H])([H])C([H])([H])C2([H])C1(C([H])([H])[H])C([H])([H])[H])C3([H])[H]

$$$$
36:0:0
     RDKit          3D

 43 46  0  0  1  0  0  0  0  0999 V2000
    3.7871   -2.2230    1.9443 C   0  0  0  0  0  0  0  0  0  0  0  0
    4.7836   -1.8080    0.8142 C   0  0  0  0  0  0  0  0  0  0  0  0
    5.4169   -0.4803    1.2804 C   0  0  0  0  0  0  0  0  0  0  0  0
    5.8984   -2.8826    0.6266 C   0  0  0  0  0  0  0  0  0  0  0  0
    5.4650   -4.0661   -0.2746 C   0  0  2  0  0  0  0  0  0  0  0  0
    5.1485   -3.5225   -1.6694 C   0  0  0  0  0  0  0  0  0  0  0  0
    3.8059   -2.8521   -1.3882 C   0  0  1  0  0  0  0  0  0  0  0  0
    3.0203   -2.5397   -2.6706 C   0  0  0  0  0  0  0  0  0  0  0  0
    3.0991   -3.9349   -0.5718 C   0  0  0  0  0  0  0  0  0  0  0  0
    4.1813   -4.6125    0.1892 N   0  0  0  0  0  0  0  0  0  0  0  0
    4.0387   -5.5612    1.1476 C   0  0  0  0  0  0  0  0  0  0  0  0
    5.0058   -6.0847    1.6906 O   0  0  0  0  0  0  0  0  0  0  0  0
    2.6398   -5.9672    1.5614 C   0  0  0  0  0  0  0  0  0  0  0  0
    1.6497   -6.2602    0.5882 C   0  0  0  0  0  0  0  0  0  0  0  0
    0.3980   -6.6574    0.9032 N   0  0  0  0  0  0  0  0  0  0  0  0
    0.1931   -6.7386    2.1968 N   0  0  0  0  0  0  0  0  0  0  0  0
   -1.0029   -7.0620    2.7676 N   0  0  0  0  0  0  0  0  0  0  0  0
   -0.7975   -7.0578    4.0888 C   0  0  0  0  0  0  0  0  0  0  0  0
    0.5269   -6.6774    4.4609 C   0  0  0  0  0  0  0  0  0  0  0  0
    1.1089   -6.4820    3.1942 C   0  0  0  0  0  0  0  0  0  0  0  0
    2.3900   -6.0885    2.9103 N   0  0  0  0  0  0  0  0  0  0  0  0
    4.0639   -1.5603   -0.5512 C   0  0  0  0  0  0  0  0  0  0  0  0
    4.3396   -2.2804    2.8970 H   0  0  0  0  0  0  0  0  0  0  0  0
    3.2466   -3.1115    1.7728 H   0  0  0  0  0  0  0  0  0  0  0  0
    3.0594   -1.4191    2.0930 H   0  0  0  0  0  0  0  0  0  0  0  0
    6.1391   -0.0564    0.5769 H   0  0  0  0  0  0  0  0  0  0  0  0
    5.9308   -0.6036    2.2337 H   0  0  0  0  0  0  0  0  0  0  0  0
    4.6473    0.2754    1.4340 H   0  0  0  0  0  0  0  0  0  0  0  0
    6.7764   -2.4323    0.1655 H   0  0  0  0  0  0  0  0  0  0  0  0
    6.2478   -3.2454    1.5929 H   0  0  0  0  0  0  0  0  0  0  0  0
    6.2529   -4.8244   -0.3441 H   0  0  0  0  0  0  0  0  0  0  0  0
    5.9089   -2.8434   -2.0666 H   0  0  0  0  0  0  0  0  0  0  0  0
    5.0286   -4.3408   -2.3856 H   0  0  0  0  0  0  0  0  0  0  0  0
    2.0541   -2.1069   -2.4272 H   0  0  0  0  0  0  0  0  0  0  0  0
    2.8190   -3.4454   -3.2409 H   0  0  0  0  0  0  0  0  0  0  0  0
    3.5454   -1.8445   -3.3251 H   0  0  0  0  0  0  0  0  0  0  0  0
    2.3644   -3.4961    0.1089 H   0  0  0  0  0  0  0  0  0  0  0  0
    2.6012   -4.6225   -1.2327 H   0  0  0  0  0  0  0  0  0  0  0  0
    1.9103   -6.2539   -0.4515 H   0  0  0  0  0  0  0  0  0  0  0  0
   -1.6470   -7.3328    4.6931 H   0  0  0  0  0  0  0  0  0  0  0  0
    1.0553   -6.5477    5.3828 H   0  0  0  0  0  0  0  0  0  0  0  0
    3.1194   -1.0383   -0.3805 H   0  0  0  0  0  0  0  0  0  0  0  0
    4.6493   -0.8741   -1.1717 H   0  0  0  0  0  0  0  0  0  0  0  0
  1  2  1  0
  1 23  1  0
  1 24  1  0
  1 25  1  0
  2 22  1  0
  2  3  1  0
  2  4  1  0
  3 26  1  0
  3 27  1  0
  3 28  1  0
  4  5  1  0
  4 29  1  0
  4 30  1  0
  5 10  1  0
  5  6  1  0
  5 31  1  6
  6  7  1  0
  6 32  1  0
  6 33  1  0
  7  8  1  6
  7  9  1  0
  7 22  1  0
  8 34  1  0
  8 35  1  0
  8 36  1  0
  9 10  1  0
  9 37  1  0
  9 38  1  0
 10 11  1  0
 11 12  2  0
 11 13  1  0
 13 21  2  0
 13 14  1  0
 14 15  2  0
 14 39  1  0
 15 16  1  0
 16 20  1  0
 16 17  1  0
 17 18  2  0
 18 19  1  0
 18 40  1  0
 19 20  2  0
 19 41  1  0
 20 21  1  0
 22 42  1  0
 22 43  1  0
M  END
>  <i_m_ct_stereo_status>  (113) 
1

>  <s_m_source_file>  (113) 
/var/tmp/pbs.5083858.sched01/tmp79lo_wn1/45k2ce5rku.sdf

>  <i_m_source_file_index>  (113) 
5

>  <i_lp_mmshare_version>  (113) 
48012

>  <i_f3d_flags>  (113) 
0

>  <s_epik_input>  (113) 
W0NIM11DKFtDSDNdKShbQ0gyXTEpW0NIMl1bQ0BIXShbQ0gyXVtDQF0xMltDSDNdKU4oW0NIMl0yKUMoPU8pYyhbY0hdbjMpbmMobjM0KVtjSF1bY0hdbjQ=

>  <s_epik_cmdline>  (113) 
J2VwaWtfcHl0aG9uJywgJy1waHQnLCAnMi4wJywgJy1waCcsICc3LjAnLCAnLXRuJywgJzgnLCAnLW1hJywgJzIwMCcsICctaW1hZScsICc8aW5maWxlLm1hZT4nLCAnLW9tYWUnLCAnPG91dGZpbGUubWFlPic=

>  <r_lp_tautomer_probability>  (113) 
1

>  <r_epik_Ionization_Penalty>  (113) 
5.66737e-09

>  <r_epik_Ionization_Penalty_Charging>  (113) 
0

>  <r_epik_Ionization_Penalty_Neutral>  (113) 
5.66737e-09

>  <r_epik_State_Penalty>  (113) 
-0

>  <r_epik_Charging_Adjusted_Penalty>  (113) 
0

>  <i_epik_Tot_Q>  (113) 
0

>  <i_epik_Tot_abs_Q>  (113) 
0

>  <s_lp_Force_Field>  (113) 
OPLS3e

>  <r_lp_Energy>  (113) 
46.322

>  <b_lp_Chiralities_Consistent>  (113) 
1

>  <s_lp_Variant>  (113) 
36:0-1

>  <s_i_glide_gridfile>  (113) 
pfpi4k_grid

>  <i_i_glide_lignum>  (113) 
5

>  <i_i_glide_rotatable_bonds>  (113) 
2

>  <r_i_docking_score>  (113) 
-3.65578

>  <r_i_glide_ligand_efficiency>  (113) 
-0.166172

>  <r_i_glide_ligand_efficiency_sa>  (113) 
-0.46562

>  <r_i_glide_ligand_efficiency_ln>  (113) 
-0.893607

>  <r_i_glide_gscore>  (113) 
-3.65578

>  <r_i_glide_lipo>  (113) 
-0.337269

>  <r_i_glide_hbond>  (113) 
-0.306274

>  <r_i_glide_metal>  (113) 
-0

>  <r_i_glide_rewards>  (113) 
-1.42597

>  <r_i_glide_evdw>  (113) 
-27.272

>  <r_i_glide_ecoul>  (113) 
-3.39174

>  <r_i_glide_erotb>  (113) 
0.409836

>  <r_i_glide_esite>  (113) 
-0.12375

>  <r_i_glide_emodel>  (113) 
-36.6967

>  <r_i_glide_energy>  (113) 
-30.6637

>  <r_i_glide_einternal>  (113) 
0.251885

>  <r_i_glide_intrahb_reward>  (113) 
-0

>  <i_i_glide_confnum>  (113) 
2

>  <i_i_glide_posenum>  (113) 
2

>  <r_i_glide_eff_state_penalty>  (113) 
0

>  <ligand_id>  (113) 
36

>  <original_smiles>  (113) 
CC1(C)CC2CC(C)(CN2C(=O)c2cnn3nccc3n2)C1

>  <smiles>  (113) 
[H]c1nn2nc([H])c([H])c2nc1C(=O)N1C([H])([H])C2(C([H])([H])[H])C([H])([H])C1([H])C([H])([H])C(C([H])([H])[H])(C([H])([H])[H])C2([H])[H]

$$$$
36:0:1
     RDKit          3D

 43 46  0  0  1  0  0  0  0  0999 V2000
    1.8479   -7.0033    5.0979 C   0  0  0  0  0  0  0  0  0  0  0  0
    0.9438   -8.2572    5.2849 C   0  0  0  0  0  0  0  0  0  0  0  0
    0.4533   -8.1645    6.7452 C   0  0  0  0  0  0  0  0  0  0  0  0
   -0.2751   -8.2334    4.3073 C   0  0  0  0  0  0  0  0  0  0  0  0
    0.0456   -8.7977    2.8932 C   0  0  2  0  0  0  0  0  0  0  0  0
    0.4546  -10.2642    3.0547 C   0  0  0  0  0  0  0  0  0  0  0  0
    1.8504  -10.0972    3.6311 C   0  0  1  0  0  0  0  0  0  0  0  0
    2.7068  -11.3706    3.5510 C   0  0  0  0  0  0  0  0  0  0  0  0
    2.3980   -9.0316    2.6826 C   0  0  0  0  0  0  0  0  0  0  0  0
    1.2536   -8.1582    2.3431 N   0  0  0  0  0  0  0  0  0  0  0  0
    1.2784   -6.9914    1.6455 C   0  0  0  0  0  0  0  0  0  0  0  0
    0.2368   -6.4083    1.3195 O   0  0  0  0  0  0  0  0  0  0  0  0
    2.6024   -6.3294    1.3391 C   0  0  0  0  0  0  0  0  0  0  0  0
    3.7270   -7.0869    0.8807 C   0  0  0  0  0  0  0  0  0  0  0  0
    4.9380   -6.5436    0.6455 N   0  0  0  0  0  0  0  0  0  0  0  0
    4.9685   -5.2413    0.8152 N   0  0  0  0  0  0  0  0  0  0  0  0
    6.0536   -4.4551    0.6060 N   0  0  0  0  0  0  0  0  0  0  0  0
    5.6708   -3.2030    0.8578 C   0  0  0  0  0  0  0  0  0  0  0  0
    4.3021   -3.0894    1.2601 C   0  0  0  0  0  0  0  0  0  0  0  0
    3.9139   -4.4469    1.2159 C   0  0  0  0  0  0  0  0  0  0  0  0
    2.6844   -4.9676    1.5021 N   0  0  0  0  0  0  0  0  0  0  0  0
    1.7220   -9.6040    5.1077 C   0  0  0  0  0  0  0  0  0  0  0  0
    1.2735   -6.0995    5.3112 H   0  0  0  0  0  0  0  0  0  0  0  0
    2.3041   -6.8979    4.1130 H   0  0  0  0  0  0  0  0  0  0  0  0
    2.6702   -7.0277    5.8104 H   0  0  0  0  0  0  0  0  0  0  0  0
   -0.2009   -8.9854    7.0494 H   0  0  0  0  0  0  0  0  0  0  0  0
   -0.0904   -7.2347    6.9140 H   0  0  0  0  0  0  0  0  0  0  0  0
    1.2961   -8.1607    7.4384 H   0  0  0  0  0  0  0  0  0  0  0  0
   -1.0853   -8.8410    4.7196 H   0  0  0  0  0  0  0  0  0  0  0  0
   -0.6913   -7.2306    4.2387 H   0  0  0  0  0  0  0  0  0  0  0  0
   -0.8266   -8.7271    2.2318 H   0  0  0  0  0  0  0  0  0  0  0  0
   -0.1960  -10.8550    3.6978 H   0  0  0  0  0  0  0  0  0  0  0  0
    0.4942  -10.7570    2.0818 H   0  0  0  0  0  0  0  0  0  0  0  0
    3.7091  -11.1889    3.9335 H   0  0  0  0  0  0  0  0  0  0  0  0
    2.8229  -11.6966    2.5199 H   0  0  0  0  0  0  0  0  0  0  0  0
    2.2741  -12.1993    4.1085 H   0  0  0  0  0  0  0  0  0  0  0  0
    3.2126   -8.4915    3.1678 H   0  0  0  0  0  0  0  0  0  0  0  0
    2.7725   -9.5442    1.7873 H   0  0  0  0  0  0  0  0  0  0  0  0
    3.6388   -8.1482    0.6954 H   0  0  0  0  0  0  0  0  0  0  0  0
    6.4328   -2.4471    0.7292 H   0  0  0  0  0  0  0  0  0  0  0  0
    3.6520   -2.2759    1.5356 H   0  0  0  0  0  0  0  0  0  0  0  0
    2.7069   -9.5240    5.5698 H   0  0  0  0  0  0  0  0  0  0  0  0
    1.2248  -10.4020    5.6774 H   0  0  0  0  0  0  0  0  0  0  0  0
  1  2  1  0
  1 23  1  0
  1 24  1  0
  1 25  1  0
  2 22  1  0
  2  3  1  0
  2  4  1  0
  3 26  1  0
  3 27  1  0
  3 28  1  0
  4  5  1  0
  4 29  1  0
  4 30  1  0
  5 10  1  0
  5  6  1  0
  5 31  1  6
  6  7  1  0
  6 32  1  0
  6 33  1  0
  7  8  1  1
  7  9  1  0
  7 22  1  0
  8 34  1  0
  8 35  1  0
  8 36  1  0
  9 10  1  0
  9 37  1  0
  9 38  1  0
 10 11  1  0
 11 12  2  0
 11 13  1  0
 13 21  2  0
 13 14  1  0
 14 15  2  0
 14 39  1  0
 15 16  1  0
 16 20  1  0
 16 17  1  0
 17 18  2  0
 18 19  1  0
 18 40  1  0
 19 20  2  0
 19 41  1  0
 20 21  1  0
 22 42  1  0
 22 43  1  0
M  END
>  <i_m_ct_stereo_status>  (114) 
1

>  <s_m_source_file>  (114) 
/var/tmp/pbs.5083858.sched01/tmp79lo_wn1/45k2ce5rku.sdf

>  <i_m_source_file_index>  (114) 
5

>  <i_lp_mmshare_version>  (114) 
48012

>  <i_f3d_flags>  (114) 
0

>  <s_epik_input>  (114) 
W0NIM11DKFtDSDNdKShbQ0gyXTEpW0NIMl1bQ0BIXShbQ0gyXVtDQF0xMltDSDNdKU4oW0NIMl0yKUMoPU8pYyhbY0hdbjMpbmMobjM0KVtjSF1bY0hdbjQ=

>  <s_epik_cmdline>  (114) 
J2VwaWtfcHl0aG9uJywgJy1waHQnLCAnMi4wJywgJy1waCcsICc3LjAnLCAnLXRuJywgJzgnLCAnLW1hJywgJzIwMCcsICctaW1hZScsICc8aW5maWxlLm1hZT4nLCAnLW9tYWUnLCAnPG91dGZpbGUubWFlPic=

>  <r_lp_tautomer_probability>  (114) 
1

>  <r_epik_Ionization_Penalty>  (114) 
5.66737e-09

>  <r_epik_Ionization_Penalty_Charging>  (114) 
0

>  <r_epik_Ionization_Penalty_Neutral>  (114) 
5.66737e-09

>  <r_epik_State_Penalty>  (114) 
-0

>  <r_epik_Charging_Adjusted_Penalty>  (114) 
0

>  <i_epik_Tot_Q>  (114) 
0

>  <i_epik_Tot_abs_Q>  (114) 
0

>  <s_lp_Force_Field>  (114) 
OPLS3e

>  <r_lp_Energy>  (114) 
46.322

>  <b_lp_Chiralities_Consistent>  (114) 
1

>  <s_lp_Variant>  (114) 
36:0-1

>  <s_i_glide_gridfile>  (114) 
pfpi4k_grid

>  <i_i_glide_lignum>  (114) 
5

>  <i_i_glide_rotatable_bonds>  (114) 
2

>  <r_i_docking_score>  (114) 
-3.466

>  <r_i_glide_ligand_efficiency>  (114) 
-0.157546

>  <r_i_glide_ligand_efficiency_sa>  (114) 
-0.441449

>  <r_i_glide_ligand_efficiency_ln>  (114) 
-0.847217

>  <r_i_glide_gscore>  (114) 
-3.466

>  <r_i_glide_lipo>  (114) 
-0.221745

>  <r_i_glide_hbond>  (114) 
-0.189652

>  <r_i_glide_metal>  (114) 
-0

>  <r_i_glide_rewards>  (114) 
-1.47919

>  <r_i_glide_evdw>  (114) 
-26.253

>  <r_i_glide_ecoul>  (114) 
-3.97637

>  <r_i_glide_erotb>  (114) 
0.409836

>  <r_i_glide_esite>  (114) 
-0.0761487

>  <r_i_glide_emodel>  (114) 
-35.6097

>  <r_i_glide_energy>  (114) 
-30.2294

>  <r_i_glide_einternal>  (114) 
0.806282

>  <r_i_glide_intrahb_reward>  (114) 
-0

>  <i_i_glide_confnum>  (114) 
2

>  <i_i_glide_posenum>  (114) 
38

>  <r_i_glide_eff_state_penalty>  (114) 
0

>  <ligand_id>  (114) 
36

>  <original_smiles>  (114) 
CC1(C)CC2CC(C)(CN2C(=O)c2cnn3nccc3n2)C1

>  <smiles>  (114) 
[H]c1nn2nc([H])c([H])c2nc1C(=O)N1C([H])([H])C2(C([H])([H])[H])C([H])([H])C1([H])C([H])([H])C(C([H])([H])[H])(C([H])([H])[H])C2([H])[H]

$$$$
36:0:2
     RDKit          3D

 43 46  0  0  1  0  0  0  0  0999 V2000
    3.6563   -6.2602    4.1145 C   0  0  0  0  0  0  0  0  0  0  0  0
    3.4083   -7.7986    4.0932 C   0  0  0  0  0  0  0  0  0  0  0  0
    3.1544   -8.1678    5.5608 C   0  0  0  0  0  0  0  0  0  0  0  0
    2.1617   -8.1600    3.2349 C   0  0  0  0  0  0  0  0  0  0  0  0
    2.4766   -8.2919    1.7205 C   0  0  2  0  0  0  0  0  0  0  0  0
    3.4778   -9.4230    1.5208 C   0  0  0  0  0  0  0  0  0  0  0  0
    4.7451   -8.7389    2.0144 C   0  0  1  0  0  0  0  0  0  0  0  0
    6.0343   -9.4725    1.6037 C   0  0  0  0  0  0  0  0  0  0  0  0
    4.6376   -7.3973    1.2961 C   0  0  0  0  0  0  0  0  0  0  0  0
    3.1924   -7.1010    1.2547 N   0  0  0  0  0  0  0  0  0  0  0  0
    2.6012   -5.9627    0.8072 C   0  0  0  0  0  0  0  0  0  0  0  0
    1.3759   -5.8908    0.7115 O   0  0  0  0  0  0  0  0  0  0  0  0
    3.4523   -4.7685    0.5021 C   0  0  0  0  0  0  0  0  0  0  0  0
    4.5853   -4.8687   -0.3845 C   0  0  0  0  0  0  0  0  0  0  0  0
    5.4124   -3.8563   -0.6602 N   0  0  0  0  0  0  0  0  0  0  0  0
    5.0539   -2.7213   -0.1039 N   0  0  0  0  0  0  0  0  0  0  0  0
    5.6921   -1.5244   -0.2330 N   0  0  0  0  0  0  0  0  0  0  0  0
    4.9889   -0.6402    0.4888 C   0  0  0  0  0  0  0  0  0  0  0  0
    3.8440   -1.1942    1.1293 C   0  0  0  0  0  0  0  0  0  0  0  0
    3.9483   -2.5430    0.7129 C   0  0  0  0  0  0  0  0  0  0  0  0
    3.0982   -3.5462    1.0490 N   0  0  0  0  0  0  0  0  0  0  0  0
    4.6484   -8.5929    3.5663 C   0  0  0  0  0  0  0  0  0  0  0  0
    2.8080   -5.7518    4.5619 H   0  0  0  0  0  0  0  0  0  0  0  0
    3.8776   -5.7890    3.1606 H   0  0  0  0  0  0  0  0  0  0  0  0
    4.4971   -6.0202    4.7550 H   0  0  0  0  0  0  0  0  0  0  0  0
    2.9643   -9.2244    5.7263 H   0  0  0  0  0  0  0  0  0  0  0  0
    2.3012   -7.6258    5.9651 H   0  0  0  0  0  0  0  0  0  0  0  0
    4.0081   -7.9044    6.1849 H   0  0  0  0  0  0  0  0  0  0  0  0
    1.7601   -9.1241    3.5532 H   0  0  0  0  0  0  0  0  0  0  0  0
    1.3499   -7.4498    3.3954 H   0  0  0  0  0  0  0  0  0  0  0  0
    1.5636   -8.4972    1.1471 H   0  0  0  0  0  0  0  0  0  0  0  0
    3.2276  -10.3342    2.0603 H   0  0  0  0  0  0  0  0  0  0  0  0
    3.5636   -9.6863    0.4666 H   0  0  0  0  0  0  0  0  0  0  0  0
    6.9112   -8.9348    1.9492 H   0  0  0  0  0  0  0  0  0  0  0  0
    6.1116   -9.5503    0.5248 H   0  0  0  0  0  0  0  0  0  0  0  0
    6.0734  -10.4821    2.0045 H   0  0  0  0  0  0  0  0  0  0  0  0
    5.1997   -6.6197    1.8217 H   0  0  0  0  0  0  0  0  0  0  0  0
    5.0177   -7.5255    0.2871 H   0  0  0  0  0  0  0  0  0  0  0  0
    4.7966   -5.8171   -0.8532 H   0  0  0  0  0  0  0  0  0  0  0  0
    5.3696    0.3777    0.4865 H   0  0  0  0  0  0  0  0  0  0  0  0
    3.0672   -0.8105    1.7564 H   0  0  0  0  0  0  0  0  0  0  0  0
    5.5690   -8.1614    3.9676 H   0  0  0  0  0  0  0  0  0  0  0  0
    4.6221   -9.6064    3.9798 H   0  0  0  0  0  0  0  0  0  0  0  0
  1  2  1  0
  1 23  1  0
  1 24  1  0
  1 25  1  0
  2 22  1  0
  2  3  1  0
  2  4  1  0
  3 26  1  0
  3 27  1  0
  3 28  1  0
  4  5  1  0
  4 29  1  0
  4 30  1  0
  5 10  1  0
  5  6  1  0
  5 31  1  6
  6  7  1  0
  6 32  1  0
  6 33  1  0
  7  8  1  1
  7  9  1  0
  7 22  1  0
  8 34  1  0
  8 35  1  0
  8 36  1  0
  9 10  1  0
  9 37  1  0
  9 38  1  0
 10 11  1  0
 11 12  2  0
 11 13  1  0
 13 21  2  0
 13 14  1  0
 14 15  2  0
 14 39  1  0
 15 16  1  0
 16 20  1  0
 16 17  1  0
 17 18  2  0
 18 19  1  0
 18 40  1  0
 19 20  2  0
 19 41  1  0
 20 21  1  0
 22 42  1  0
 22 43  1  0
M  END
>  <i_m_ct_stereo_status>  (115) 
1

>  <s_m_source_file>  (115) 
/var/tmp/pbs.5083858.sched01/tmp79lo_wn1/45k2ce5rku.sdf

>  <i_m_source_file_index>  (115) 
5

>  <i_lp_mmshare_version>  (115) 
48012

>  <i_f3d_flags>  (115) 
0

>  <s_epik_input>  (115) 
W0NIM11DKFtDSDNdKShbQ0gyXTEpW0NIMl1bQ0BIXShbQ0gyXVtDQF0xMltDSDNdKU4oW0NIMl0yKUMoPU8pYyhbY0hdbjMpbmMobjM0KVtjSF1bY0hdbjQ=

>  <s_epik_cmdline>  (115) 
J2VwaWtfcHl0aG9uJywgJy1waHQnLCAnMi4wJywgJy1waCcsICc3LjAnLCAnLXRuJywgJzgnLCAnLW1hJywgJzIwMCcsICctaW1hZScsICc8aW5maWxlLm1hZT4nLCAnLW9tYWUnLCAnPG91dGZpbGUubWFlPic=

>  <r_lp_tautomer_probability>  (115) 
1

>  <r_epik_Ionization_Penalty>  (115) 
5.66737e-09

>  <r_epik_Ionization_Penalty_Charging>  (115) 
0

>  <r_epik_Ionization_Penalty_Neutral>  (115) 
5.66737e-09

>  <r_epik_State_Penalty>  (115) 
-0

>  <r_epik_Charging_Adjusted_Penalty>  (115) 
0

>  <i_epik_Tot_Q>  (115) 
0

>  <i_epik_Tot_abs_Q>  (115) 
0

>  <s_lp_Force_Field>  (115) 
OPLS3e

>  <r_lp_Energy>  (115) 
46.322

>  <b_lp_Chiralities_Consistent>  (115) 
1

>  <s_lp_Variant>  (115) 
36:0-1

>  <s_i_glide_gridfile>  (115) 
pfpi4k_grid

>  <i_i_glide_lignum>  (115) 
5

>  <i_i_glide_rotatable_bonds>  (115) 
2

>  <r_i_docking_score>  (115) 
-3.43426

>  <r_i_glide_ligand_efficiency>  (115) 
-0.156103

>  <r_i_glide_ligand_efficiency_sa>  (115) 
-0.437407

>  <r_i_glide_ligand_efficiency_ln>  (115) 
-0.839459

>  <r_i_glide_gscore>  (115) 
-3.43426

>  <r_i_glide_lipo>  (115) 
-0.255865

>  <r_i_glide_hbond>  (115) 
-0.16

>  <r_i_glide_metal>  (115) 
-0

>  <r_i_glide_rewards>  (115) 
-1.46395

>  <r_i_glide_evdw>  (115) 
-24.1354

>  <r_i_glide_ecoul>  (115) 
-4.83132

>  <r_i_glide_erotb>  (115) 
0.409836

>  <r_i_glide_esite>  (115) 
-0.0328153

>  <r_i_glide_emodel>  (115) 
-35.1801

>  <r_i_glide_energy>  (115) 
-28.9667

>  <r_i_glide_einternal>  (115) 
0.237973

>  <r_i_glide_intrahb_reward>  (115) 
-0

>  <i_i_glide_confnum>  (115) 
2

>  <i_i_glide_posenum>  (115) 
36

>  <r_i_glide_eff_state_penalty>  (115) 
0

>  <ligand_id>  (115) 
36

>  <original_smiles>  (115) 
CC1(C)CC2CC(C)(CN2C(=O)c2cnn3nccc3n2)C1

>  <smiles>  (115) 
[H]c1nn2nc([H])c([H])c2nc1C(=O)N1C([H])([H])C2(C([H])([H])[H])C([H])([H])C1([H])C([H])([H])C(C([H])([H])[H])(C([H])([H])[H])C2([H])[H]

$$$$
37:0:0
     RDKit          3D

 32 32  0  0  1  0  0  0  0  0999 V2000
   -0.5594    4.9157    3.6806 C   0  0  0  0  0  0  0  0  0  0  0  0
   -1.5642    3.9004    4.2325 C   0  0  0  0  0  0  0  0  0  0  0  0
   -1.9580    2.8075    3.2307 C   0  0  0  0  0  0  0  0  0  0  0  0
   -0.8730    1.8823    2.8300 C   0  0  0  0  0  0  0  0  0  0  0  0
    0.0331    1.1323    2.5084 C   0  0  0  0  0  0  0  0  0  0  0  0
    0.9272    0.3672    2.1828 C   0  0  0  0  0  0  0  0  0  0  0  0
    1.8350   -0.3919    1.8652 C   0  0  0  0  0  0  0  0  0  0  0  0
    2.9333   -1.2562    1.5110 C   0  0  2  0  0  0  0  0  0  0  0  0
    4.1056   -1.4585    2.4274 C   0  0  0  0  0  0  0  0  0  0  0  0
    4.2916   -0.7282    1.1191 C   0  0  1  0  0  0  0  0  0  0  0  0
    5.1181   -1.3734    0.0011 C   0  0  2  0  0  0  0  0  0  0  0  0
    6.4827   -1.0474    0.1649 O   0  0  0  0  0  0  0  0  0  0  0  0
    4.6280   -0.9723   -1.3264 C   0  0  0  0  0  0  0  0  0  0  0  0
    4.2034   -0.6619   -2.4300 C   0  0  0  0  0  0  0  0  0  0  0  0
    3.6682   -0.2473   -3.7357 C   0  0  0  0  0  0  0  0  0  0  0  0
    3.7892   -1.2580   -4.7164 O   0  0  0  0  0  0  0  0  0  0  0  0
   -0.2858    5.6633    4.4244 H   0  0  0  0  0  0  0  0  0  0  0  0
   -0.9537    5.4324    2.8046 H   0  0  0  0  0  0  0  0  0  0  0  0
    0.3576    4.4159    3.3711 H   0  0  0  0  0  0  0  0  0  0  0  0
   -1.1775    3.4478    5.1405 H   0  0  0  0  0  0  0  0  0  0  0  0
   -2.4597    4.4329    4.5440 H   0  0  0  0  0  0  0  0  0  0  0  0
   -2.7692    2.2094    3.6319 H   0  0  0  0  0  0  0  0  0  0  0  0
   -2.3503    3.2640    2.3288 H   0  0  0  0  0  0  0  0  0  0  0  0
    2.5378   -2.0904    0.9640 H   0  0  0  0  0  0  0  0  0  0  0  0
    4.1459   -0.8897    3.3542 H   0  0  0  0  0  0  0  0  0  0  0  0
    4.5641   -2.4489    2.4827 H   0  0  0  0  0  0  0  0  0  0  0  0
    4.4142    0.3473    1.1765 H   0  0  0  0  0  0  0  0  0  0  0  0
    5.0162   -2.4549    0.0682 H   0  0  0  0  0  0  0  0  0  0  0  0
    6.5648   -0.4662    0.9088 H   0  0  0  0  0  0  0  0  0  0  0  0
    2.6199    0.0312   -3.6091 H   0  0  0  0  0  0  0  0  0  0  0  0
    4.2070    0.6424   -4.0593 H   0  0  0  0  0  0  0  0  0  0  0  0
    2.9152   -1.4480   -5.0351 H   0  0  0  0  0  0  0  0  0  0  0  0
  1  2  1  0
  1 17  1  0
  1 18  1  0
  1 19  1  0
  2  3  1  0
  2 20  1  0
  2 21  1  0
  3  4  1  0
  3 22  1  0
  3 23  1  0
  4  5  3  0
  5  6  1  0
  6  7  3  0
  7  8  1  0
  8 10  1  0
  8  9  1  0
  8 24  1  6
  9 10  1  0
  9 25  1  0
  9 26  1  0
 10 11  1  0
 10 27  1  1
 11 12  1  0
 11 13  1  0
 11 28  1  6
 12 29  1  0
 13 14  3  0
 14 15  1  0
 15 16  1  0
 15 30  1  0
 15 31  1  0
 16 32  1  0
M  END
>  <i_m_ct_stereo_status>  (116) 
1

>  <s_m_source_file>  (116) 
/var/tmp/pbs.5083858.sched01/tmplbv9mpj5/50fwxwtu4n.sdf

>  <i_m_source_file_index>  (116) 
1

>  <i_lp_mmshare_version>  (116) 
48012

>  <i_f3d_flags>  (116) 
0

>  <s_epik_input>  (116) 
W0NIM11bQ0gyXVtDSDJdQyNDQyNDW0NAQEhdMVtDSDJdW0NASF0xW0NASF0oW09IXSlDI0NbQ0gyXVtPSF0=

>  <s_epik_cmdline>  (116) 
J2VwaWtfcHl0aG9uJywgJy1waHQnLCAnMi4wJywgJy1waCcsICc3LjAnLCAnLXRuJywgJzgnLCAnLW1hJywgJzIwMCcsICctaW1hZScsICc8aW5maWxlLm1hZT4nLCAnLW9tYWUnLCAnPG91dGZpbGUubWFlPic=

>  <r_lp_tautomer_probability>  (116) 
1

>  <r_epik_Ionization_Penalty>  (116) 
5.20875e-07

>  <r_epik_Ionization_Penalty_Charging>  (116) 
0

>  <r_epik_Ionization_Penalty_Neutral>  (116) 
5.20875e-07

>  <r_epik_State_Penalty>  (116) 
-0

>  <r_epik_Charging_Adjusted_Penalty>  (116) 
0

>  <i_epik_Tot_Q>  (116) 
0

>  <i_epik_Tot_abs_Q>  (116) 
0

>  <s_lp_Force_Field>  (116) 
OPLS3e

>  <r_lp_Energy>  (116) 
-0.429247

>  <b_lp_Chiralities_Consistent>  (116) 
1

>  <s_lp_Variant>  (116) 
37:0-1

>  <s_i_glide_gridfile>  (116) 
pfpi4k_grid

>  <i_i_glide_lignum>  (116) 
1

>  <i_i_glide_rotatable_bonds>  (116) 
9

>  <r_i_docking_score>  (116) 
-0.759265

>  <r_i_glide_ligand_efficiency>  (116) 
-0.0474541

>  <r_i_glide_ligand_efficiency_sa>  (116) 
-0.119577

>  <r_i_glide_ligand_efficiency_ln>  (116) 
-0.201258

>  <r_i_glide_gscore>  (116) 
-0.759265

>  <r_i_glide_lipo>  (116) 
-0.345605

>  <r_i_glide_hbond>  (116) 
-0.614894

>  <r_i_glide_metal>  (116) 
-0

>  <r_i_glide_rewards>  (116) 
-1.93448

>  <r_i_glide_evdw>  (116) 
-21.5518

>  <r_i_glide_ecoul>  (116) 
-7.23178

>  <r_i_glide_erotb>  (116) 
4.29807

>  <r_i_glide_esite>  (116) 
0

>  <r_i_glide_emodel>  (116) 
-30.1449

>  <r_i_glide_energy>  (116) 
-28.7836

>  <r_i_glide_einternal>  (116) 
-0.0211939

>  <r_i_glide_intrahb_reward>  (116) 
-0

>  <i_i_glide_confnum>  (116) 
1

>  <i_i_glide_posenum>  (116) 
31

>  <r_i_glide_eff_state_penalty>  (116) 
0

>  <ligand_id>  (116) 
37

>  <original_smiles>  (116) 
CCCC#CC#CC1CC1C(O)C#CCO

>  <smiles>  (116) 
[H]OC([H])([H])C#CC([H])(O[H])C1([H])C([H])([H])C1([H])C#CC#CC([H])([H])C([H])([H])C([H])([H])[H]

$$$$
37:0:1
     RDKit          3D

 32 32  0  0  1  0  0  0  0  0999 V2000
   -2.9276    3.0961    5.8827 C   0  0  0  0  0  0  0  0  0  0  0  0
   -1.8546    2.1276    5.3693 C   0  0  0  0  0  0  0  0  0  0  0  0
   -1.5572    2.2717    3.8628 C   0  0  0  0  0  0  0  0  0  0  0  0
   -0.4842    1.3907    3.3424 C   0  0  0  0  0  0  0  0  0  0  0  0
    0.4063    0.6717    2.9094 C   0  0  0  0  0  0  0  0  0  0  0  0
    1.2825   -0.0643    2.4725 C   0  0  0  0  0  0  0  0  0  0  0  0
    2.1763   -0.7853    2.0426 C   0  0  0  0  0  0  0  0  0  0  0  0
    3.2625   -1.6016    1.5616 C   0  0  2  0  0  0  0  0  0  0  0  0
    4.4972   -1.8498    2.3943 C   0  0  0  0  0  0  0  0  0  0  0  0
    4.5904   -1.0122    1.1358 C   0  0  1  0  0  0  0  0  0  0  0  0
    5.3564   -1.5510   -0.0635 C   0  0  2  0  0  0  0  0  0  0  0  0
    6.7191   -1.2118    0.0850 O   0  0  0  0  0  0  0  0  0  0  0  0
    4.7949   -1.0511   -1.3328 C   0  0  0  0  0  0  0  0  0  0  0  0
    4.3103   -0.6590   -2.3809 C   0  0  0  0  0  0  0  0  0  0  0  0
    3.7068   -0.1447   -3.6252 C   0  0  0  0  0  0  0  0  0  0  0  0
    3.8118   -1.0556   -4.6989 O   0  0  0  0  0  0  0  0  0  0  0  0
   -3.1063    2.9561    6.9477 H   0  0  0  0  0  0  0  0  0  0  0  0
   -3.8817    2.9522    5.3799 H   0  0  0  0  0  0  0  0  0  0  0  0
   -2.6344    4.1345    5.7405 H   0  0  0  0  0  0  0  0  0  0  0  0
   -0.9397    2.2930    5.9343 H   0  0  0  0  0  0  0  0  0  0  0  0
   -2.1747    1.1084    5.5736 H   0  0  0  0  0  0  0  0  0  0  0  0
   -2.4618    2.0763    3.2839 H   0  0  0  0  0  0  0  0  0  0  0  0
   -1.2807    3.3023    3.6313 H   0  0  0  0  0  0  0  0  0  0  0  0
    2.8686   -2.4198    0.9644 H   0  0  0  0  0  0  0  0  0  0  0  0
    4.5702   -1.3480    3.3576 H   0  0  0  0  0  0  0  0  0  0  0  0
    4.9750   -2.8256    2.3477 H   0  0  0  0  0  0  0  0  0  0  0  0
    4.6936    0.0615    1.2761 H   0  0  0  0  0  0  0  0  0  0  0  0
    5.2745   -2.6362   -0.0862 H   0  0  0  0  0  0  0  0  0  0  0  0
    6.8381   -0.7355    0.8945 H   0  0  0  0  0  0  0  0  0  0  0  0
    2.6582    0.0795   -3.4327 H   0  0  0  0  0  0  0  0  0  0  0  0
    4.2028    0.7902   -3.8821 H   0  0  0  0  0  0  0  0  0  0  0  0
    2.9362   -1.2482   -5.0063 H   0  0  0  0  0  0  0  0  0  0  0  0
  1  2  1  0
  1 17  1  0
  1 18  1  0
  1 19  1  0
  2  3  1  0
  2 20  1  0
  2 21  1  0
  3  4  1  0
  3 22  1  0
  3 23  1  0
  4  5  3  0
  5  6  1  0
  6  7  3  0
  7  8  1  0
  8 10  1  0
  8  9  1  0
  8 24  1  6
  9 10  1  0
  9 25  1  0
  9 26  1  0
 10 11  1  0
 10 27  1  1
 11 12  1  0
 11 13  1  0
 11 28  1  6
 12 29  1  0
 13 14  3  0
 14 15  1  0
 15 16  1  0
 15 30  1  0
 15 31  1  0
 16 32  1  0
M  END
>  <i_m_ct_stereo_status>  (117) 
1

>  <s_m_source_file>  (117) 
/var/tmp/pbs.5083858.sched01/tmplbv9mpj5/50fwxwtu4n.sdf

>  <i_m_source_file_index>  (117) 
1

>  <i_lp_mmshare_version>  (117) 
48012

>  <i_f3d_flags>  (117) 
0

>  <s_epik_input>  (117) 
W0NIM11bQ0gyXVtDSDJdQyNDQyNDW0NAQEhdMVtDSDJdW0NASF0xW0NASF0oW09IXSlDI0NbQ0gyXVtPSF0=

>  <s_epik_cmdline>  (117) 
J2VwaWtfcHl0aG9uJywgJy1waHQnLCAnMi4wJywgJy1waCcsICc3LjAnLCAnLXRuJywgJzgnLCAnLW1hJywgJzIwMCcsICctaW1hZScsICc8aW5maWxlLm1hZT4nLCAnLW9tYWUnLCAnPG91dGZpbGUubWFlPic=

>  <r_lp_tautomer_probability>  (117) 
1

>  <r_epik_Ionization_Penalty>  (117) 
5.20875e-07

>  <r_epik_Ionization_Penalty_Charging>  (117) 
0

>  <r_epik_Ionization_Penalty_Neutral>  (117) 
5.20875e-07

>  <r_epik_State_Penalty>  (117) 
-0

>  <r_epik_Charging_Adjusted_Penalty>  (117) 
0

>  <i_epik_Tot_Q>  (117) 
0

>  <i_epik_Tot_abs_Q>  (117) 
0

>  <s_lp_Force_Field>  (117) 
OPLS3e

>  <r_lp_Energy>  (117) 
-0.429247

>  <b_lp_Chiralities_Consistent>  (117) 
1

>  <s_lp_Variant>  (117) 
37:0-1

>  <s_i_glide_gridfile>  (117) 
pfpi4k_grid

>  <i_i_glide_lignum>  (117) 
1

>  <i_i_glide_rotatable_bonds>  (117) 
9

>  <r_i_docking_score>  (117) 
-0.524738

>  <r_i_glide_ligand_efficiency>  (117) 
-0.0327961

>  <r_i_glide_ligand_efficiency_sa>  (117) 
-0.082641

>  <r_i_glide_ligand_efficiency_ln>  (117) 
-0.139092

>  <r_i_glide_gscore>  (117) 
-0.524738

>  <r_i_glide_lipo>  (117) 
-0.327215

>  <r_i_glide_hbond>  (117) 
-0.545305

>  <r_i_glide_metal>  (117) 
-0

>  <r_i_glide_rewards>  (117) 
-1.93448

>  <r_i_glide_evdw>  (117) 
-20.1445

>  <r_i_glide_ecoul>  (117) 
-6.72389

>  <r_i_glide_erotb>  (117) 
4.29807

>  <r_i_glide_esite>  (117) 
0

>  <r_i_glide_emodel>  (117) 
-27.6958

>  <r_i_glide_energy>  (117) 
-26.8684

>  <r_i_glide_einternal>  (117) 
0.178405

>  <r_i_glide_intrahb_reward>  (117) 
-0

>  <i_i_glide_confnum>  (117) 
1

>  <i_i_glide_posenum>  (117) 
1

>  <r_i_glide_eff_state_penalty>  (117) 
0

>  <ligand_id>  (117) 
37

>  <original_smiles>  (117) 
CCCC#CC#CC1CC1C(O)C#CCO

>  <smiles>  (117) 
[H]OC([H])([H])C#CC([H])(O[H])C1([H])C([H])([H])C1([H])C#CC#CC([H])([H])C([H])([H])C([H])([H])[H]

$$$$
38:0:0
     RDKit          3D

 16 17  0  0  1  0  0  0  0  0999 V2000
    8.3346   -3.6335    0.6774 O   0  0  0  0  0  0  0  0  0  0  0  0
    7.6374   -2.6376    0.4752 C   0  0  0  0  0  0  0  0  0  0  0  0
    6.6087   -2.6230   -0.5877 C   0  0  0  0  0  0  0  0  0  0  0  0
    6.2108   -3.6420   -1.3518 N   0  0  0  0  0  0  0  0  0  0  0  0
    5.2953   -3.0708   -2.2066 C   0  0  0  0  0  0  0  0  0  0  0  0
    4.5272   -3.5835   -3.2714 C   0  0  0  0  0  0  0  0  0  0  0  0
    3.6036   -2.7574   -3.9456 C   0  0  0  0  0  0  0  0  0  0  0  0
    3.4947   -1.3882   -3.6289 C   0  0  0  0  0  0  0  0  0  0  0  0
    4.2880   -0.8544   -2.5943 C   0  0  0  0  0  0  0  0  0  0  0  0
    5.1567   -1.7059   -1.8962 C   0  0  0  0  0  0  0  0  0  0  0  0
    6.0152   -1.4189   -0.8520 O   0  0  0  0  0  0  0  0  0  0  0  0
    7.7254   -1.7071    1.0396 H   0  0  0  0  0  0  0  0  0  0  0  0
    4.6193   -4.6270   -3.5264 H   0  0  0  0  0  0  0  0  0  0  0  0
    2.9723   -3.1766   -4.7115 H   0  0  0  0  0  0  0  0  0  0  0  0
    2.7982   -0.7517   -4.1616 H   0  0  0  0  0  0  0  0  0  0  0  0
    4.2140    0.1809   -2.3346 H   0  0  0  0  0  0  0  0  0  0  0  0
  1  2  2  0
  2  3  1  0
  2 12  1  0
  3 11  1  0
  3  4  2  0
  4  5  1  0
  5 10  2  0
  5  6  1  0
  6  7  2  0
  6 13  1  0
  7  8  1  0
  7 14  1  0
  8  9  2  0
  8 15  1  0
  9 10  1  0
  9 16  1  0
 10 11  1  0
M  END
>  <i_m_ct_stereo_status>  (118) 
1

>  <s_m_source_file>  (118) 
/var/tmp/pbs.5083858.sched01/tmplbv9mpj5/50fwxwtu4n.sdf

>  <i_m_source_file_index>  (118) 
2

>  <i_lp_mmshare_version>  (118) 
48012

>  <i_f3d_flags>  (118) 
0

>  <s_epik_input>  (118) 
Tz1bQ0hdYyhuMSlvYyhjMTIpW2NIXVtjSF1bY0hdW2NIXTI=

>  <s_epik_cmdline>  (118) 
J2VwaWtfcHl0aG9uJywgJy1waHQnLCAnMi4wJywgJy1waCcsICc3LjAnLCAnLXRuJywgJzgnLCAnLW1hJywgJzIwMCcsICctaW1hZScsICc8aW5maWxlLm1hZT4nLCAnLW9tYWUnLCAnPG91dGZpbGUubWFlPic=

>  <r_lp_tautomer_probability>  (118) 
1

>  <r_epik_Ionization_Penalty>  (118) 
1.82866e-14

>  <r_epik_Ionization_Penalty_Charging>  (118) 
0

>  <r_epik_Ionization_Penalty_Neutral>  (118) 
1.82866e-14

>  <r_epik_State_Penalty>  (118) 
-0

>  <r_epik_Charging_Adjusted_Penalty>  (118) 
0

>  <i_epik_Tot_Q>  (118) 
0

>  <i_epik_Tot_abs_Q>  (118) 
0

>  <s_lp_Force_Field>  (118) 
OPLS3e

>  <r_lp_Energy>  (118) 
15.9136

>  <b_lp_Chiralities_Consistent>  (118) 
1

>  <s_lp_Variant>  (118) 
38:0-1

>  <s_i_glide_gridfile>  (118) 
pfpi4k_grid

>  <i_i_glide_lignum>  (118) 
2

>  <i_i_glide_rotatable_bonds>  (118) 
1

>  <r_i_docking_score>  (118) 
-4.18042

>  <r_i_glide_ligand_efficiency>  (118) 
-0.380038

>  <r_i_glide_ligand_efficiency_sa>  (118) 
-0.845197

>  <r_i_glide_ligand_efficiency_ln>  (118) 
-1.2303

>  <r_i_glide_gscore>  (118) 
-4.18042

>  <r_i_glide_lipo>  (118) 
-0.528398

>  <r_i_glide_hbond>  (118) 
-0.0906

>  <r_i_glide_metal>  (118) 
-0

>  <r_i_glide_rewards>  (118) 
-2.48891

>  <r_i_glide_evdw>  (118) 
-16.5179

>  <r_i_glide_ecoul>  (118) 
-1.64409

>  <r_i_glide_erotb>  (118) 
0

>  <r_i_glide_esite>  (118) 
0

>  <r_i_glide_emodel>  (118) 
-22.9663

>  <r_i_glide_energy>  (118) 
-18.162

>  <r_i_glide_einternal>  (118) 
0.0985429

>  <r_i_glide_intrahb_reward>  (118) 
-0

>  <i_i_glide_confnum>  (118) 
2

>  <i_i_glide_posenum>  (118) 
13

>  <r_i_glide_eff_state_penalty>  (118) 
0

>  <ligand_id>  (118) 
38

>  <original_smiles>  (118) 
O=Cc1nc2ccccc2o1

>  <smiles>  (118) 
[H]C(=O)c1nc2c([H])c([H])c([H])c([H])c2o1

$$$$
38:0:1
     RDKit          3D

 16 17  0  0  1  0  0  0  0  0999 V2000
    0.7033   -6.2645    1.2196 O   0  0  0  0  0  0  0  0  0  0  0  0
    1.9366   -6.2552    1.2543 C   0  0  0  0  0  0  0  0  0  0  0  0
    2.7044   -5.2424    0.4783 C   0  0  0  0  0  0  0  0  0  0  0  0
    2.2151   -4.2681   -0.3086 N   0  0  0  0  0  0  0  0  0  0  0  0
    3.3432   -3.6336   -0.7812 C   0  0  0  0  0  0  0  0  0  0  0  0
    3.5309   -2.5410   -1.6552 C   0  0  0  0  0  0  0  0  0  0  0  0
    4.8351   -2.0947   -1.9738 C   0  0  0  0  0  0  0  0  0  0  0  0
    5.9630   -2.7462   -1.4191 C   0  0  0  0  0  0  0  0  0  0  0  0
    5.7913   -3.8355   -0.5388 C   0  0  0  0  0  0  0  0  0  0  0  0
    4.4870   -4.2593   -0.2433 C   0  0  0  0  0  0  0  0  0  0  0  0
    4.0707   -5.2980    0.5713 O   0  0  0  0  0  0  0  0  0  0  0  0
    2.5266   -6.9589    1.8407 H   0  0  0  0  0  0  0  0  0  0  0  0
    2.6638   -2.0509   -2.0724 H   0  0  0  0  0  0  0  0  0  0  0  0
    4.9605   -1.2542   -2.6412 H   0  0  0  0  0  0  0  0  0  0  0  0
    6.9631   -2.4261   -1.6630 H   0  0  0  0  0  0  0  0  0  0  0  0
    6.6253   -4.3507   -0.0936 H   0  0  0  0  0  0  0  0  0  0  0  0
  1  2  2  0
  2  3  1  0
  2 12  1  0
  3 11  1  0
  3  4  2  0
  4  5  1  0
  5 10  2  0
  5  6  1  0
  6  7  2  0
  6 13  1  0
  7  8  1  0
  7 14  1  0
  8  9  2  0
  8 15  1  0
  9 10  1  0
  9 16  1  0
 10 11  1  0
M  END
>  <i_m_ct_stereo_status>  (119) 
1

>  <s_m_source_file>  (119) 
/var/tmp/pbs.5083858.sched01/tmplbv9mpj5/50fwxwtu4n.sdf

>  <i_m_source_file_index>  (119) 
2

>  <i_lp_mmshare_version>  (119) 
48012

>  <i_f3d_flags>  (119) 
0

>  <s_epik_input>  (119) 
Tz1bQ0hdYyhuMSlvYyhjMTIpW2NIXVtjSF1bY0hdW2NIXTI=

>  <s_epik_cmdline>  (119) 
J2VwaWtfcHl0aG9uJywgJy1waHQnLCAnMi4wJywgJy1waCcsICc3LjAnLCAnLXRuJywgJzgnLCAnLW1hJywgJzIwMCcsICctaW1hZScsICc8aW5maWxlLm1hZT4nLCAnLW9tYWUnLCAnPG91dGZpbGUubWFlPic=

>  <r_lp_tautomer_probability>  (119) 
1

>  <r_epik_Ionization_Penalty>  (119) 
1.82866e-14

>  <r_epik_Ionization_Penalty_Charging>  (119) 
0

>  <r_epik_Ionization_Penalty_Neutral>  (119) 
1.82866e-14

>  <r_epik_State_Penalty>  (119) 
-0

>  <r_epik_Charging_Adjusted_Penalty>  (119) 
0

>  <i_epik_Tot_Q>  (119) 
0

>  <i_epik_Tot_abs_Q>  (119) 
0

>  <s_lp_Force_Field>  (119) 
OPLS3e

>  <r_lp_Energy>  (119) 
15.9136

>  <b_lp_Chiralities_Consistent>  (119) 
1

>  <s_lp_Variant>  (119) 
38:0-1

>  <s_i_glide_gridfile>  (119) 
pfpi4k_grid

>  <i_i_glide_lignum>  (119) 
2

>  <i_i_glide_rotatable_bonds>  (119) 
1

>  <r_i_docking_score>  (119) 
-3.55494

>  <r_i_glide_ligand_efficiency>  (119) 
-0.323176

>  <r_i_glide_ligand_efficiency_sa>  (119) 
-0.718738

>  <r_i_glide_ligand_efficiency_ln>  (119) 
-1.04622

>  <r_i_glide_gscore>  (119) 
-3.55494

>  <r_i_glide_lipo>  (119) 
-0.0690502

>  <r_i_glide_hbond>  (119) 
-0.16

>  <r_i_glide_metal>  (119) 
-0

>  <r_i_glide_rewards>  (119) 
-2.25

>  <r_i_glide_evdw>  (119) 
-14.7508

>  <r_i_glide_ecoul>  (119) 
-1.99986

>  <r_i_glide_erotb>  (119) 
0

>  <r_i_glide_esite>  (119) 
-0.0383697

>  <r_i_glide_emodel>  (119) 
-20.8994

>  <r_i_glide_energy>  (119) 
-16.7507

>  <r_i_glide_einternal>  (119) 
0.000319825

>  <r_i_glide_intrahb_reward>  (119) 
-0

>  <i_i_glide_confnum>  (119) 
1

>  <i_i_glide_posenum>  (119) 
8

>  <r_i_glide_eff_state_penalty>  (119) 
0

>  <ligand_id>  (119) 
38

>  <original_smiles>  (119) 
O=Cc1nc2ccccc2o1

>  <smiles>  (119) 
[H]C(=O)c1nc2c([H])c([H])c([H])c([H])c2o1

$$$$
38:0:2
     RDKit          3D

 16 17  0  0  1  0  0  0  0  0999 V2000
    2.0254   -5.4887    1.8310 O   0  0  0  0  0  0  0  0  0  0  0  0
    2.8866   -4.6165    1.6981 C   0  0  0  0  0  0  0  0  0  0  0  0
    2.9947   -3.8438    0.4358 C   0  0  0  0  0  0  0  0  0  0  0  0
    2.3038   -4.0232   -0.6981 N   0  0  0  0  0  0  0  0  0  0  0  0
    2.8149   -3.0582   -1.5408 C   0  0  0  0  0  0  0  0  0  0  0  0
    2.5606   -2.7291   -2.8886 C   0  0  0  0  0  0  0  0  0  0  0  0
    3.2185   -1.6340   -3.4928 C   0  0  0  0  0  0  0  0  0  0  0  0
    4.1431   -0.8619   -2.7509 C   0  0  0  0  0  0  0  0  0  0  0  0
    4.4329   -1.2011   -1.4125 C   0  0  0  0  0  0  0  0  0  0  0  0
    3.7663   -2.2888   -0.8404 C   0  0  0  0  0  0  0  0  0  0  0  0
    3.8840   -2.8069    0.4361 O   0  0  0  0  0  0  0  0  0  0  0  0
    3.6003   -4.3573    2.4838 H   0  0  0  0  0  0  0  0  0  0  0  0
    1.8327   -3.3047   -3.4377 H   0  0  0  0  0  0  0  0  0  0  0  0
    2.9844   -1.3574   -4.5083 H   0  0  0  0  0  0  0  0  0  0  0  0
    4.6057    0.0026   -3.1965 H   0  0  0  0  0  0  0  0  0  0  0  0
    5.1216   -0.6239   -0.8184 H   0  0  0  0  0  0  0  0  0  0  0  0
  1  2  2  0
  2  3  1  0
  2 12  1  0
  3 11  1  0
  3  4  2  0
  4  5  1  0
  5 10  2  0
  5  6  1  0
  6  7  2  0
  6 13  1  0
  7  8  1  0
  7 14  1  0
  8  9  2  0
  8 15  1  0
  9 10  1  0
  9 16  1  0
 10 11  1  0
M  END
>  <i_m_ct_stereo_status>  (120) 
1

>  <s_m_source_file>  (120) 
/var/tmp/pbs.5083858.sched01/tmplbv9mpj5/50fwxwtu4n.sdf

>  <i_m_source_file_index>  (120) 
2

>  <i_lp_mmshare_version>  (120) 
48012

>  <i_f3d_flags>  (120) 
0

>  <s_epik_input>  (120) 
Tz1bQ0hdYyhuMSlvYyhjMTIpW2NIXVtjSF1bY0hdW2NIXTI=

>  <s_epik_cmdline>  (120) 
J2VwaWtfcHl0aG9uJywgJy1waHQnLCAnMi4wJywgJy1waCcsICc3LjAnLCAnLXRuJywgJzgnLCAnLW1hJywgJzIwMCcsICctaW1hZScsICc8aW5maWxlLm1hZT4nLCAnLW9tYWUnLCAnPG91dGZpbGUubWFlPic=

>  <r_lp_tautomer_probability>  (120) 
1

>  <r_epik_Ionization_Penalty>  (120) 
1.82866e-14

>  <r_epik_Ionization_Penalty_Charging>  (120) 
0

>  <r_epik_Ionization_Penalty_Neutral>  (120) 
1.82866e-14

>  <r_epik_State_Penalty>  (120) 
-0

>  <r_epik_Charging_Adjusted_Penalty>  (120) 
0

>  <i_epik_Tot_Q>  (120) 
0

>  <i_epik_Tot_abs_Q>  (120) 
0

>  <s_lp_Force_Field>  (120) 
OPLS3e

>  <r_lp_Energy>  (120) 
15.9136

>  <b_lp_Chiralities_Consistent>  (120) 
1

>  <s_lp_Variant>  (120) 
38:0-1

>  <s_i_glide_gridfile>  (120) 
pfpi4k_grid

>  <i_i_glide_lignum>  (120) 
2

>  <i_i_glide_rotatable_bonds>  (120) 
1

>  <r_i_docking_score>  (120) 
-3.53194

>  <r_i_glide_ligand_efficiency>  (120) 
-0.321085

>  <r_i_glide_ligand_efficiency_sa>  (120) 
-0.714088

>  <r_i_glide_ligand_efficiency_ln>  (120) 
-1.03945

>  <r_i_glide_gscore>  (120) 
-3.53194

>  <r_i_glide_lipo>  (120) 
-0.275857

>  <r_i_glide_hbond>  (120) 
0

>  <r_i_glide_metal>  (120) 
-0

>  <r_i_glide_rewards>  (120) 
-2.25

>  <r_i_glide_evdw>  (120) 
-15.7898

>  <r_i_glide_ecoul>  (120) 
-1.40129

>  <r_i_glide_erotb>  (120) 
0

>  <r_i_glide_esite>  (120) 
-0.00640207

>  <r_i_glide_emodel>  (120) 
-21.2367

>  <r_i_glide_energy>  (120) 
-17.191

>  <r_i_glide_einternal>  (120) 
0.0941061

>  <r_i_glide_intrahb_reward>  (120) 
-0

>  <i_i_glide_confnum>  (120) 
2

>  <i_i_glide_posenum>  (120) 
27

>  <r_i_glide_eff_state_penalty>  (120) 
0

>  <ligand_id>  (120) 
38

>  <original_smiles>  (120) 
O=Cc1nc2ccccc2o1

>  <smiles>  (120) 
[H]C(=O)c1nc2c([H])c([H])c([H])c([H])c2o1

$$$$
40:0:0
     RDKit          3D

 91 96  0  0  1  0  0  0  0  0999 V2000
    4.2140   -3.0383   -3.6646 C   0  0  0  0  0  0  0  0  0  0  0  0
    4.3567   -1.7711   -2.8425 C   0  0  0  0  0  0  0  0  0  0  0  0
    3.9092   -0.6863   -3.2066 O   0  0  0  0  0  0  0  0  0  0  0  0
    5.0014   -2.0094   -1.7070 O   0  0  0  0  0  0  0  0  0  0  0  0
    4.9340   -1.0609   -0.6567 C   0  0  0  0  0  0  0  0  0  0  0  0
    5.5117   -1.5964    0.6654 C   0  0  1  0  0  0  0  0  0  0  0  0
    7.0131   -1.3207    0.5518 C   0  0  0  0  0  0  0  0  0  0  0  0
    4.9123   -0.7943    1.8379 C   0  0  0  0  0  0  0  0  0  0  0  0
    5.5964   -0.0823    2.5752 O   0  0  0  0  0  0  0  0  0  0  0  0
    3.4349   -0.9560    2.1500 C   0  0  0  0  0  0  0  0  0  0  0  0
    3.1723   -2.4255    2.4604 C   0  0  0  0  0  0  0  0  0  0  0  0
    3.7236   -3.4346    1.3803 C   0  0  1  0  0  0  0  0  0  0  0  0
    2.7932   -3.1671    0.1811 C   0  0  0  0  0  0  0  0  0  0  0  0
    5.2308   -3.1168    0.9448 C   0  0  2  0  0  0  0  0  0  0  0  0
    6.3415   -3.8333    1.8106 C   0  0  0  0  0  0  0  0  0  0  0  0
    6.0297   -5.2192    2.4912 C   0  0  1  0  0  0  0  0  0  0  0  0
    6.9118   -5.4640    3.5369 O   0  0  0  0  0  0  0  0  0  0  0  0
    4.6407   -5.0546    3.0604 C   0  0  2  0  0  0  0  0  0  0  0  0
    3.8999   -5.8646    4.1917 C   0  0  2  0  0  0  0  0  0  0  0  0
    3.0933   -4.7704    4.9710 C   0  0  0  0  0  0  0  0  0  0  0  0
    4.6716   -6.6487    5.2643 C   0  0  0  0  0  0  0  0  0  0  0  0
    3.6998   -7.3162    6.2801 C   0  0  0  0  0  0  0  0  0  0  0  0
    2.3388   -7.9384    5.7700 C   0  0  2  0  0  0  0  0  0  0  0  0
    1.3123   -7.5908    6.8708 C   0  0  0  0  0  0  0  0  0  0  0  0
    2.4543   -9.5001    5.7944 C   0  0  0  0  0  0  0  0  0  0  0  0
    1.2634  -10.2204    5.1777 C   0  0  0  0  0  0  0  0  0  0  0  0
    1.0839   -9.7671    3.7289 C   0  0  1  0  0  0  0  0  0  0  0  0
    0.0620  -10.6041    2.9928 C   0  0  0  0  0  0  0  0  0  0  0  0
    0.7694   -8.2426    3.6379 C   0  0  1  0  0  0  0  0  0  0  0  0
   -0.6823   -7.8708    4.0136 C   0  0  0  0  0  0  0  0  0  0  0  0
    1.8206   -7.3599    4.3782 C   0  0  2  0  0  0  0  0  0  0  0  0
    2.9532   -6.8257    3.4367 C   0  0  2  0  0  0  0  0  0  0  0  0
    3.8016   -8.0605    2.9369 C   0  0  0  0  0  0  0  0  0  0  0  0
    2.4787   -5.8409    2.2842 C   0  0  2  0  0  0  0  0  0  0  0  0
    2.3772   -6.3836    0.8817 C   0  0  1  0  0  0  0  0  0  0  0  0
    1.3779   -5.8531    0.0553 O   0  0  0  0  0  0  0  0  0  0  0  0
    3.8428   -5.9592    0.6857 C   0  0  1  0  0  0  0  0  0  0  0  0
    4.4080   -5.5387   -0.5418 O   0  0  0  0  0  0  0  0  0  0  0  0
    3.6882   -4.9497    1.8672 C   0  0  1  0  0  0  0  0  0  0  0  0
    5.1807   -3.5330   -3.7605 H   0  0  0  0  0  0  0  0  0  0  0  0
    3.8176   -2.8114   -4.6506 H   0  0  0  0  0  0  0  0  0  0  0  0
    3.5315   -3.7234   -3.1657 H   0  0  0  0  0  0  0  0  0  0  0  0
    5.5366   -0.2166   -0.9804 H   0  0  0  0  0  0  0  0  0  0  0  0
    3.9303   -0.6823   -0.5326 H   0  0  0  0  0  0  0  0  0  0  0  0
    7.5378   -1.9762   -0.1507 H   0  0  0  0  0  0  0  0  0  0  0  0
    7.4424   -1.4238    1.5339 H   0  0  0  0  0  0  0  0  0  0  0  0
    7.2017   -0.2851    0.2846 H   0  0  0  0  0  0  0  0  0  0  0  0
    3.1844   -0.3457    3.0074 H   0  0  0  0  0  0  0  0  0  0  0  0
    2.8391   -0.5708    1.3278 H   0  0  0  0  0  0  0  0  0  0  0  0
    3.5702   -2.5536    3.4669 H   0  0  0  0  0  0  0  0  0  0  0  0
    2.0967   -2.5658    2.5533 H   0  0  0  0  0  0  0  0  0  0  0  0
    3.1385   -3.5254   -0.7846 H   0  0  0  0  0  0  0  0  0  0  0  0
    2.6276   -2.1160    0.0228 H   0  0  0  0  0  0  0  0  0  0  0  0
    1.8112   -3.5755    0.3946 H   0  0  0  0  0  0  0  0  0  0  0  0
    5.4535   -3.5792   -0.0146 H   0  0  0  0  0  0  0  0  0  0  0  0
    7.2437   -3.9401    1.2414 H   0  0  0  0  0  0  0  0  0  0  0  0
    6.6044   -3.0858    2.5505 H   0  0  0  0  0  0  0  0  0  0  0  0
    6.1247   -6.0251    1.7623 H   0  0  0  0  0  0  0  0  0  0  0  0
    7.8021   -5.5229    3.2044 H   0  0  0  0  0  0  0  0  0  0  0  0
    4.8015   -4.1044    3.5627 H   0  0  0  0  0  0  0  0  0  0  0  0
    2.4812   -5.1475    5.7815 H   0  0  0  0  0  0  0  0  0  0  0  0
    2.4039   -4.2273    4.3300 H   0  0  0  0  0  0  0  0  0  0  0  0
    3.7666   -4.0505    5.4352 H   0  0  0  0  0  0  0  0  0  0  0  0
    5.3384   -7.3994    4.8347 H   0  0  0  0  0  0  0  0  0  0  0  0
    5.3464   -5.9741    5.7901 H   0  0  0  0  0  0  0  0  0  0  0  0
    4.2722   -8.0817    6.7727 H   0  0  0  0  0  0  0  0  0  0  0  0
    3.4906   -6.5803    7.0777 H   0  0  0  0  0  0  0  0  0  0  0  0
    0.3478   -8.0656    6.7199 H   0  0  0  0  0  0  0  0  0  0  0  0
    1.1397   -6.5169    6.9360 H   0  0  0  0  0  0  0  0  0  0  0  0
    1.6715   -7.9185    7.8507 H   0  0  0  0  0  0  0  0  0  0  0  0
    3.3609   -9.8605    5.3113 H   0  0  0  0  0  0  0  0  0  0  0  0
    2.5491   -9.8507    6.8223 H   0  0  0  0  0  0  0  0  0  0  0  0
    1.4271  -11.3029    5.2130 H   0  0  0  0  0  0  0  0  0  0  0  0
    0.3578  -10.0535    5.7592 H   0  0  0  0  0  0  0  0  0  0  0  0
    2.0135   -9.9753    3.2178 H   0  0  0  0  0  0  0  0  0  0  0  0
   -0.9002  -10.4982    3.4699 H   0  0  0  0  0  0  0  0  0  0  0  0
    0.3454  -11.6642    2.9993 H   0  0  0  0  0  0  0  0  0  0  0  0
   -0.0786  -10.2896    1.9654 H   0  0  0  0  0  0  0  0  0  0  0  0
    0.8252   -8.0036    2.5829 H   0  0  0  0  0  0  0  0  0  0  0  0
   -0.9602   -8.2047    5.0101 H   0  0  0  0  0  0  0  0  0  0  0  0
   -1.3954   -8.3137    3.3188 H   0  0  0  0  0  0  0  0  0  0  0  0
   -0.8385   -6.7919    3.9624 H   0  0  0  0  0  0  0  0  0  0  0  0
    1.2493   -6.4650    4.6170 H   0  0  0  0  0  0  0  0  0  0  0  0
    3.3463   -8.6534    2.1500 H   0  0  0  0  0  0  0  0  0  0  0  0
    4.0130   -8.7671    3.7188 H   0  0  0  0  0  0  0  0  0  0  0  0
    4.7988   -7.7824    2.6130 H   0  0  0  0  0  0  0  0  0  0  0  0
    1.5967   -5.2473    2.5138 H   0  0  0  0  0  0  0  0  0  0  0  0
    2.2209   -7.4511    0.8849 H   0  0  0  0  0  0  0  0  0  0  0  0
    1.7723   -5.7508   -0.7960 H   0  0  0  0  0  0  0  0  0  0  0  0
    4.4213   -6.8366    0.9050 H   0  0  0  0  0  0  0  0  0  0  0  0
    3.7368   -5.5040   -1.2275 H   0  0  0  0  0  0  0  0  0  0  0  0
  1  2  1  0
  1 40  1  0
  1 41  1  0
  1 42  1  0
  2  3  2  0
  2  4  1  0
  4  5  1  0
  6  5  1  6
  5 43  1  0
  5 44  1  0
  6 14  1  0
  6  7  1  0
  6  8  1  0
  7 45  1  0
  7 46  1  0
  7 47  1  0
  8  9  2  0
  8 10  1  0
 10 11  1  0
 10 48  1  0
 10 49  1  0
 11 12  1  0
 11 50  1  0
 11 51  1  0
 39 12  1  6
 12 13  1  6
 12 14  1  0
 13 52  1  0
 13 53  1  0
 13 54  1  0
 14 15  1  0
 14 55  1  6
 15 16  1  0
 15 56  1  0
 15 57  1  0
 16 17  1  0
 16 18  1  0
 16 58  1  6
 17 59  1  0
 18 39  1  0
 18 19  1  0
 18 60  1  1
 19 32  1  0
 19 20  1  1
 19 21  1  0
 20 61  1  0
 20 62  1  0
 20 63  1  0
 21 22  1  0
 21 64  1  0
 21 65  1  0
 22 23  1  0
 22 66  1  0
 22 67  1  0
 23 31  1  0
 23 24  1  1
 23 25  1  0
 24 68  1  0
 24 69  1  0
 24 70  1  0
 25 26  1  0
 25 71  1  0
 25 72  1  0
 26 27  1  0
 26 73  1  0
 26 74  1  0
 27 28  1  0
 27 29  1  0
 27 75  1  6
 28 76  1  0
 28 77  1  0
 28 78  1  0
 29 30  1  0
 29 31  1  0
 29 79  1  6
 30 80  1  0
 30 81  1  0
 30 82  1  0
 31 32  1  0
 31 83  1  1
 32 33  1  6
 32 34  1  0
 33 84  1  0
 33 85  1  0
 33 86  1  0
 34 39  1  0
 34 35  1  0
 34 87  1  1
 35 36  1  0
 35 37  1  0
 35 88  1  1
 36 89  1  0
 37 38  1  0
 37 39  1  0
 37 90  1  1
 38 91  1  0
M  END
>  <i_m_ct_stereo_status>  (121) 
1

>  <s_m_source_file>  (121) 
/var/tmp/pbs.5083858.sched01/tmplbv9mpj5/50fwxwtu4n.sdf

>  <i_m_source_file_index>  (121) 
4

>  <i_lp_mmshare_version>  (121) 
48012

>  <i_f3d_flags>  (121) 
0

>  <s_epik_input>  (121) 
W0NIM11DKD1PKU9bQ0gyXVtDQEBdKFtDSDNdKShDKD1PKVtDSDJdW0NIMl0xKVtDQEhdKFtDQF0xKFtDQEBdMjM0KVtDSDNdKVtDSDJdW0NAQEhdKFtPSF0pW0NAQEhdMltDQEBdNShbQ0gzXSlbQ0BdKFtDSDNdKShbQ0BASF0zW0NAQEhdKFtPSF0pW0NASF00W09IXSlbQ0BASF02W0NAXShbQ0gzXSkoW0NIMl1bQ0gyXTUpW0NIMl1bQ0gyXVtDQEBIXShbQ0gzXSlbQ0BIXTZbQ0gzXQ==

>  <s_epik_cmdline>  (121) 
J2VwaWtfcHl0aG9uJywgJy1waHQnLCAnMi4wJywgJy1waCcsICc3LjAnLCAnLXRuJywgJzgnLCAnLW1hJywgJzIwMCcsICctaW1hZScsICc8aW5maWxlLm1hZT4nLCAnLW9tYWUnLCAnPG91dGZpbGUubWFlPic=

>  <r_lp_tautomer_probability>  (121) 
1

>  <r_epik_Ionization_Penalty>  (121) 
2.0355e-06

>  <r_epik_Ionization_Penalty_Charging>  (121) 
0

>  <r_epik_Ionization_Penalty_Neutral>  (121) 
2.0355e-06

>  <r_epik_State_Penalty>  (121) 
-0

>  <r_epik_Charging_Adjusted_Penalty>  (121) 
0

>  <i_epik_Tot_Q>  (121) 
0

>  <i_epik_Tot_abs_Q>  (121) 
0

>  <s_epik_Chemistry_Notes>  (121) 
This compound has an ester and may undergo hydrolysis at high or low pH.

>  <s_lp_Force_Field>  (121) 
OPLS3e

>  <r_lp_Energy>  (121) 
143.514

>  <b_lp_Chiralities_Consistent>  (121) 
1

>  <s_lp_Variant>  (121) 
40:0-1

>  <s_i_glide_gridfile>  (121) 
pfpi4k_grid

>  <i_i_glide_lignum>  (121) 
4

>  <i_i_glide_rotatable_bonds>  (121) 
6

>  <r_i_docking_score>  (121) 
-3.61684

>  <r_i_glide_ligand_efficiency>  (121) 
-0.0927395

>  <r_i_glide_ligand_efficiency_sa>  (121) 
-0.314499

>  <r_i_glide_ligand_efficiency_ln>  (121) 
-0.775553

>  <r_i_glide_gscore>  (121) 
-3.61684

>  <r_i_glide_lipo>  (121) 
-0.470394

>  <r_i_glide_hbond>  (121) 
-0.211301

>  <r_i_glide_metal>  (121) 
-0

>  <r_i_glide_rewards>  (121) 
-0.181145

>  <r_i_glide_evdw>  (121) 
-26.3033

>  <r_i_glide_ecoul>  (121) 
-10.5223

>  <r_i_glide_erotb>  (121) 
0.139505

>  <r_i_glide_esite>  (121) 
0

>  <r_i_glide_emodel>  (121) 
-39.9872

>  <r_i_glide_energy>  (121) 
-36.8256

>  <r_i_glide_einternal>  (121) 
7.45799

>  <r_i_glide_intrahb_reward>  (121) 
-0

>  <i_i_glide_confnum>  (121) 
1

>  <i_i_glide_posenum>  (121) 
26

>  <r_i_glide_eff_state_penalty>  (121) 
0

>  <ligand_id>  (121) 
40

>  <original_smiles>  (121) 
CC(=O)OCC1(C)C(=O)CCC2(C)C1CC(O)C1C3(C)CCC4(C)CCC(C)C(C)C4C3(C)C3C(O)C(O)C132

>  <smiles>  (121) 
[H]OC1([H])C([H])([H])C2([H])C(C([H])([H])[H])(C([H])([H])OC(=O)C([H])([H])[H])C(=O)C([H])([H])C([H])([H])C2(C([H])([H])[H])C23C([H])(O[H])C([H])(O[H])C2([H])C2(C([H])([H])[H])C4([H])C([H])(C([H])([H])[H])C([H])(C([H])([H])[H])C([H])([H])C([H])([H])C4(C([H])([H])[H])C([H])([H])C([H])([H])C2(C([H])([H])[H])C13[H]

$$$$
40:0:1
     RDKit          3D

 91 96  0  0  1  0  0  0  0  0999 V2000
    2.5380   -3.0530   -3.9157 C   0  0  0  0  0  0  0  0  0  0  0  0
    3.5386   -2.2876   -3.0881 C   0  0  0  0  0  0  0  0  0  0  0  0
    4.4698   -1.6667   -3.6165 O   0  0  0  0  0  0  0  0  0  0  0  0
    3.3031   -2.3935   -1.7717 O   0  0  0  0  0  0  0  0  0  0  0  0
    4.1433   -1.7542   -0.8183 C   0  0  0  0  0  0  0  0  0  0  0  0
    5.2490   -2.7015   -0.2567 C   0  0  1  0  0  0  0  0  0  0  0  0
    6.1826   -3.0646   -1.4521 C   0  0  0  0  0  0  0  0  0  0  0  0
    6.0665   -1.8739    0.7541 C   0  0  0  0  0  0  0  0  0  0  0  0
    7.1921   -1.4525    0.4950 O   0  0  0  0  0  0  0  0  0  0  0  0
    5.4039   -1.5559    2.0892 C   0  0  0  0  0  0  0  0  0  0  0  0
    4.9187   -2.8320    2.7962 C   0  0  0  0  0  0  0  0  0  0  0  0
    4.0253   -3.7845    1.9183 C   0  0  1  0  0  0  0  0  0  0  0  0
    2.6906   -2.9799    1.8448 C   0  0  0  0  0  0  0  0  0  0  0  0
    4.6820   -4.0035    0.4613 C   0  0  2  0  0  0  0  0  0  0  0  0
    5.7189   -5.2070    0.3629 C   0  0  0  0  0  0  0  0  0  0  0  0
    5.5839   -6.4513    1.2879 C   0  0  1  0  0  0  0  0  0  0  0  0
    6.8086   -7.1578    1.3001 O   0  0  0  0  0  0  0  0  0  0  0  0
    5.2123   -5.8788    2.6478 C   0  0  2  0  0  0  0  0  0  0  0  0
    5.3783   -6.5097    4.0881 C   0  0  2  0  0  0  0  0  0  0  0  0
    5.9328   -5.3345    4.9686 C   0  0  0  0  0  0  0  0  0  0  0  0
    6.3326   -7.6950    4.3413 C   0  0  0  0  0  0  0  0  0  0  0  0
    6.3302   -8.0998    5.8444 C   0  0  0  0  0  0  0  0  0  0  0  0
    4.9778   -8.0512    6.6700 C   0  0  2  0  0  0  0  0  0  0  0  0
    5.3806   -7.5068    8.0673 C   0  0  0  0  0  0  0  0  0  0  0  0
    4.4885   -9.5108    6.9216 C   0  0  0  0  0  0  0  0  0  0  0  0
    3.1066   -9.6015    7.5825 C   0  0  0  0  0  0  0  0  0  0  0  0
    2.0499   -8.8945    6.7306 C   0  0  1  0  0  0  0  0  0  0  0  0
    0.6230   -9.1547    7.2501 C   0  0  0  0  0  0  0  0  0  0  0  0
    2.3841   -7.3883    6.5520 C   0  0  1  0  0  0  0  0  0  0  0  0
    2.0224   -6.5357    7.7894 C   0  0  0  0  0  0  0  0  0  0  0  0
    3.8432   -7.1143    6.0416 C   0  0  2  0  0  0  0  0  0  0  0  0
    3.9394   -6.9122    4.4827 C   0  0  2  0  0  0  0  0  0  0  0  0
    3.5899   -8.2765    3.7891 C   0  0  0  0  0  0  0  0  0  0  0  0
    3.1331   -5.6919    3.8887 C   0  0  2  0  0  0  0  0  0  0  0  0
    1.8036   -5.9621    3.1774 C   0  0  1  0  0  0  0  0  0  0  0  0
    0.8087   -4.9846    3.3210 O   0  0  0  0  0  0  0  0  0  0  0  0
    2.5951   -6.0539    1.8696 C   0  0  1  0  0  0  0  0  0  0  0  0
    1.9372   -5.6235    0.6946 O   0  0  0  0  0  0  0  0  0  0  0  0
    3.7945   -5.2479    2.5341 C   0  0  1  0  0  0  0  0  0  0  0  0
    2.3745   -4.0544   -3.5180 H   0  0  0  0  0  0  0  0  0  0  0  0
    2.9363   -3.1448   -4.9252 H   0  0  0  0  0  0  0  0  0  0  0  0
    1.5861   -2.5208   -3.9547 H   0  0  0  0  0  0  0  0  0  0  0  0
    4.6042   -0.8628   -1.2493 H   0  0  0  0  0  0  0  0  0  0  0  0
    3.5015   -1.3705   -0.0322 H   0  0  0  0  0  0  0  0  0  0  0  0
    5.6886   -3.7436   -2.1501 H   0  0  0  0  0  0  0  0  0  0  0  0
    7.1263   -3.5293   -1.1610 H   0  0  0  0  0  0  0  0  0  0  0  0
    6.4538   -2.1677   -2.0040 H   0  0  0  0  0  0  0  0  0  0  0  0
    6.1198   -1.0353    2.7205 H   0  0  0  0  0  0  0  0  0  0  0  0
    4.5978   -0.8510    1.9183 H   0  0  0  0  0  0  0  0  0  0  0  0
    5.8292   -3.2696    3.1706 H   0  0  0  0  0  0  0  0  0  0  0  0
    4.3728   -2.5556    3.6994 H   0  0  0  0  0  0  0  0  0  0  0  0
    2.0525   -3.2604    1.0113 H   0  0  0  0  0  0  0  0  0  0  0  0
    2.8308   -1.9097    1.7363 H   0  0  0  0  0  0  0  0  0  0  0  0
    2.1385   -3.0515    2.7759 H   0  0  0  0  0  0  0  0  0  0  0  0
    3.8704   -4.3337   -0.1825 H   0  0  0  0  0  0  0  0  0  0  0  0
    5.7268   -5.5758   -0.6592 H   0  0  0  0  0  0  0  0  0  0  0  0
    6.7102   -4.7997    0.5474 H   0  0  0  0  0  0  0  0  0  0  0  0
    4.8297   -7.1332    0.9089 H   0  0  0  0  0  0  0  0  0  0  0  0
    7.4739   -6.6083    1.6837 H   0  0  0  0  0  0  0  0  0  0  0  0
    6.0028   -5.1488    2.6731 H   0  0  0  0  0  0  0  0  0  0  0  0
    6.0679   -5.5640    6.0182 H   0  0  0  0  0  0  0  0  0  0  0  0
    5.2863   -4.4585    4.9549 H   0  0  0  0  0  0  0  0  0  0  0  0
    6.9262   -5.0481    4.6250 H   0  0  0  0  0  0  0  0  0  0  0  0
    6.1066   -8.5557    3.7166 H   0  0  0  0  0  0  0  0  0  0  0  0
    7.3467   -7.4236    4.0483 H   0  0  0  0  0  0  0  0  0  0  0  0
    6.7808   -9.0886    5.9272 H   0  0  0  0  0  0  0  0  0  0  0  0
    7.0683   -7.4601    6.3329 H   0  0  0  0  0  0  0  0  0  0  0  0
    4.5693   -7.5378    8.7889 H   0  0  0  0  0  0  0  0  0  0  0  0
    5.7225   -6.4726    8.0213 H   0  0  0  0  0  0  0  0  0  0  0  0
    6.1969   -8.0904    8.4969 H   0  0  0  0  0  0  0  0  0  0  0  0
    4.4768  -10.1067    6.0140 H   0  0  0  0  0  0  0  0  0  0  0  0
    5.2001  -10.0355    7.5584 H   0  0  0  0  0  0  0  0  0  0  0  0
    2.8414  -10.6530    7.6946 H   0  0  0  0  0  0  0  0  0  0  0  0
    3.1235   -9.1980    8.5936 H   0  0  0  0  0  0  0  0  0  0  0  0
    2.0810   -9.3690    5.7515 H   0  0  0  0  0  0  0  0  0  0  0  0
    0.4949   -8.8357    8.2856 H   0  0  0  0  0  0  0  0  0  0  0  0
    0.3924  -10.2216    7.2108 H   0  0  0  0  0  0  0  0  0  0  0  0
   -0.1211   -8.6447    6.6370 H   0  0  0  0  0  0  0  0  0  0  0  0
    1.7074   -7.0259    5.7798 H   0  0  0  0  0  0  0  0  0  0  0  0
    2.5106   -6.8840    8.6979 H   0  0  0  0  0  0  0  0  0  0  0  0
    0.9486   -6.5512    7.9726 H   0  0  0  0  0  0  0  0  0  0  0  0
    2.2929   -5.4889    7.6415 H   0  0  0  0  0  0  0  0  0  0  0  0
    4.0448   -6.1210    6.4361 H   0  0  0  0  0  0  0  0  0  0  0  0
    2.5326   -8.5159    3.7576 H   0  0  0  0  0  0  0  0  0  0  0  0
    4.0370   -9.1264    4.2830 H   0  0  0  0  0  0  0  0  0  0  0  0
    3.9865   -8.3534    2.7821 H   0  0  0  0  0  0  0  0  0  0  0  0
    3.0535   -4.8446    4.5713 H   0  0  0  0  0  0  0  0  0  0  0  0
    1.3303   -6.9074    3.4274 H   0  0  0  0  0  0  0  0  0  0  0  0
    1.2197   -4.1544    3.1309 H   0  0  0  0  0  0  0  0  0  0  0  0
    2.8275   -7.0932    1.6810 H   0  0  0  0  0  0  0  0  0  0  0  0
    2.5353   -5.7721   -0.0279 H   0  0  0  0  0  0  0  0  0  0  0  0
  1  2  1  0
  1 40  1  0
  1 41  1  0
  1 42  1  0
  2  3  2  0
  2  4  1  0
  4  5  1  0
  6  5  1  6
  5 43  1  0
  5 44  1  0
  6 14  1  0
  6  7  1  0
  6  8  1  0
  7 45  1  0
  7 46  1  0
  7 47  1  0
  8  9  2  0
  8 10  1  0
 10 11  1  0
 10 48  1  0
 10 49  1  0
 11 12  1  0
 11 50  1  0
 11 51  1  0
 39 12  1  6
 12 13  1  6
 12 14  1  0
 13 52  1  0
 13 53  1  0
 13 54  1  0
 14 15  1  0
 14 55  1  6
 15 16  1  0
 15 56  1  0
 15 57  1  0
 16 17  1  0
 16 18  1  0
 16 58  1  6
 17 59  1  0
 18 39  1  0
 18 19  1  0
 18 60  1  1
 19 32  1  0
 19 20  1  1
 19 21  1  0
 20 61  1  0
 20 62  1  0
 20 63  1  0
 21 22  1  0
 21 64  1  0
 21 65  1  0
 22 23  1  0
 22 66  1  0
 22 67  1  0
 23 31  1  0
 23 24  1  1
 23 25  1  0
 24 68  1  0
 24 69  1  0
 24 70  1  0
 25 26  1  0
 25 71  1  0
 25 72  1  0
 26 27  1  0
 26 73  1  0
 26 74  1  0
 27 28  1  0
 27 29  1  0
 27 75  1  6
 28 76  1  0
 28 77  1  0
 28 78  1  0
 29 30  1  0
 29 31  1  0
 29 79  1  6
 30 80  1  0
 30 81  1  0
 30 82  1  0
 31 32  1  0
 31 83  1  1
 32 33  1  6
 32 34  1  0
 33 84  1  0
 33 85  1  0
 33 86  1  0
 34 39  1  0
 34 35  1  0
 34 87  1  1
 35 36  1  0
 35 37  1  0
 35 88  1  1
 36 89  1  0
 37 38  1  0
 37 39  1  0
 37 90  1  6
 38 91  1  0
M  END
>  <i_m_ct_stereo_status>  (122) 
1

>  <s_m_source_file>  (122) 
/var/tmp/pbs.5083858.sched01/tmplbv9mpj5/50fwxwtu4n.sdf

>  <i_m_source_file_index>  (122) 
4

>  <i_lp_mmshare_version>  (122) 
48012

>  <i_f3d_flags>  (122) 
0

>  <s_epik_input>  (122) 
W0NIM11DKD1PKU9bQ0gyXVtDQEBdKFtDSDNdKShDKD1PKVtDSDJdW0NIMl0xKVtDQEhdKFtDQF0xKFtDQEBdMjM0KVtDSDNdKVtDSDJdW0NAQEhdKFtPSF0pW0NAQEhdMltDQEBdNShbQ0gzXSlbQ0BdKFtDSDNdKShbQ0BASF0zW0NAQEhdKFtPSF0pW0NASF00W09IXSlbQ0BASF02W0NAXShbQ0gzXSkoW0NIMl1bQ0gyXTUpW0NIMl1bQ0gyXVtDQEBIXShbQ0gzXSlbQ0BIXTZbQ0gzXQ==

>  <s_epik_cmdline>  (122) 
J2VwaWtfcHl0aG9uJywgJy1waHQnLCAnMi4wJywgJy1waCcsICc3LjAnLCAnLXRuJywgJzgnLCAnLW1hJywgJzIwMCcsICctaW1hZScsICc8aW5maWxlLm1hZT4nLCAnLW9tYWUnLCAnPG91dGZpbGUubWFlPic=

>  <r_lp_tautomer_probability>  (122) 
1

>  <r_epik_Ionization_Penalty>  (122) 
2.0355e-06

>  <r_epik_Ionization_Penalty_Charging>  (122) 
0

>  <r_epik_Ionization_Penalty_Neutral>  (122) 
2.0355e-06

>  <r_epik_State_Penalty>  (122) 
-0

>  <r_epik_Charging_Adjusted_Penalty>  (122) 
0

>  <i_epik_Tot_Q>  (122) 
0

>  <i_epik_Tot_abs_Q>  (122) 
0

>  <s_epik_Chemistry_Notes>  (122) 
This compound has an ester and may undergo hydrolysis at high or low pH.

>  <s_lp_Force_Field>  (122) 
OPLS3e

>  <r_lp_Energy>  (122) 
143.514

>  <b_lp_Chiralities_Consistent>  (122) 
1

>  <s_lp_Variant>  (122) 
40:0-1

>  <s_i_glide_gridfile>  (122) 
pfpi4k_grid

>  <i_i_glide_lignum>  (122) 
4

>  <i_i_glide_rotatable_bonds>  (122) 
6

>  <r_i_docking_score>  (122) 
-3.38487

>  <r_i_glide_ligand_efficiency>  (122) 
-0.0867916

>  <r_i_glide_ligand_efficiency_sa>  (122) 
-0.294329

>  <r_i_glide_ligand_efficiency_ln>  (122) 
-0.725813

>  <r_i_glide_gscore>  (122) 
-3.38487

>  <r_i_glide_lipo>  (122) 
-0.611697

>  <r_i_glide_hbond>  (122) 
-0.00975176

>  <r_i_glide_metal>  (122) 
-0

>  <r_i_glide_rewards>  (122) 
-0.275825

>  <r_i_glide_evdw>  (122) 
-34.7961

>  <r_i_glide_ecoul>  (122) 
-5.91534

>  <r_i_glide_erotb>  (122) 
0.139505

>  <r_i_glide_esite>  (122) 
0

>  <r_i_glide_emodel>  (122) 
-48.0864

>  <r_i_glide_energy>  (122) 
-40.7114

>  <r_i_glide_einternal>  (122) 
3.04187

>  <r_i_glide_intrahb_reward>  (122) 
-0

>  <i_i_glide_confnum>  (122) 
1

>  <i_i_glide_posenum>  (122) 
36

>  <r_i_glide_eff_state_penalty>  (122) 
0

>  <ligand_id>  (122) 
40

>  <original_smiles>  (122) 
CC(=O)OCC1(C)C(=O)CCC2(C)C1CC(O)C1C3(C)CCC4(C)CCC(C)C(C)C4C3(C)C3C(O)C(O)C132

>  <smiles>  (122) 
[H]OC1([H])C([H])([H])C2([H])C(C([H])([H])[H])(C([H])([H])OC(=O)C([H])([H])[H])C(=O)C([H])([H])C([H])([H])C2(C([H])([H])[H])C23C([H])(O[H])C([H])(O[H])C2([H])C2(C([H])([H])[H])C4([H])C([H])(C([H])([H])[H])C([H])(C([H])([H])[H])C([H])([H])C([H])([H])C4(C([H])([H])[H])C([H])([H])C([H])([H])C2(C([H])([H])[H])C13[H]

$$$$
40:0:2
     RDKit          3D

 91 96  0  0  1  0  0  0  0  0999 V2000
    3.3875   -0.8852   -3.2859 C   0  0  0  0  0  0  0  0  0  0  0  0
    3.6056   -2.3978   -3.2776 C   0  0  0  0  0  0  0  0  0  0  0  0
    3.4126   -3.0617   -4.2899 O   0  0  0  0  0  0  0  0  0  0  0  0
    4.0345   -2.9293   -2.1098 O   0  0  0  0  0  0  0  0  0  0  0  0
    4.4092   -2.1176   -1.0029 C   0  0  0  0  0  0  0  0  0  0  0  0
    5.4997   -2.7854   -0.1388 C   0  0  1  0  0  0  0  0  0  0  0  0
    6.6747   -3.0586   -1.1257 C   0  0  0  0  0  0  0  0  0  0  0  0
    5.9493   -1.7198    0.8767 C   0  0  0  0  0  0  0  0  0  0  0  0
    7.0090   -1.1228    0.7559 O   0  0  0  0  0  0  0  0  0  0  0  0
    4.9642   -1.3737    1.9883 C   0  0  0  0  0  0  0  0  0  0  0  0
    4.5599   -2.6318    2.7658 C   0  0  0  0  0  0  0  0  0  0  0  0
    4.0439   -3.8279    1.8756 C   0  0  1  0  0  0  0  0  0  0  0  0
    2.6404   -3.3039    1.4288 C   0  0  0  0  0  0  0  0  0  0  0  0
    5.0252   -4.0855    0.6205 C   0  0  2  0  0  0  0  0  0  0  0  0
    6.2494   -5.0618    0.9002 C   0  0  0  0  0  0  0  0  0  0  0  0
    6.1167   -6.2019    1.9525 C   0  0  1  0  0  0  0  0  0  0  0  0
    7.4132   -6.6163    2.3350 O   0  0  0  0  0  0  0  0  0  0  0  0
    5.3614   -5.5616    3.1111 C   0  0  2  0  0  0  0  0  0  0  0  0
    5.3102   -5.9878    4.6316 C   0  0  2  0  0  0  0  0  0  0  0  0
    5.4540   -4.6372    5.4239 C   0  0  0  0  0  0  0  0  0  0  0  0
    6.3642   -6.9383    5.2405 C   0  0  0  0  0  0  0  0  0  0  0  0
    6.0940   -7.1727    6.7568 C   0  0  0  0  0  0  0  0  0  0  0  0
    4.6033   -7.3003    7.2813 C   0  0  2  0  0  0  0  0  0  0  0  0
    4.5933   -6.5422    8.6357 C   0  0  0  0  0  0  0  0  0  0  0  0
    4.3167   -8.7934    7.6399 C   0  0  0  0  0  0  0  0  0  0  0  0
    2.8563   -9.0800    8.0182 C   0  0  0  0  0  0  0  0  0  0  0  0
    1.9140   -8.6746    6.8837 C   0  0  1  0  0  0  0  0  0  0  0  0
    0.4702   -9.1448    7.1422 C   0  0  0  0  0  0  0  0  0  0  0  0
    2.0299   -7.1598    6.5590 C   0  0  1  0  0  0  0  0  0  0  0  0
    1.2674   -6.2647    7.5609 C   0  0  0  0  0  0  0  0  0  0  0  0
    3.5004   -6.6675    6.3141 C   0  0  2  0  0  0  0  0  0  0  0  0
    3.9055   -6.6171    4.7949 C   0  0  2  0  0  0  0  0  0  0  0  0
    3.9438   -8.0842    4.2468 C   0  0  0  0  0  0  0  0  0  0  0  0
    3.0540   -5.6470    3.8846 C   0  0  2  0  0  0  0  0  0  0  0  0
    1.9776   -6.2367    2.9629 C   0  0  1  0  0  0  0  0  0  0  0  0
    0.8232   -5.4685    2.7507 O   0  0  0  0  0  0  0  0  0  0  0  0
    3.0446   -6.3090    1.8691 C   0  0  1  0  0  0  0  0  0  0  0  0
    2.5950   -6.1131    0.5471 O   0  0  0  0  0  0  0  0  0  0  0  0
    3.9196   -5.2292    2.6377 C   0  0  1  0  0  0  0  0  0  0  0  0
    2.7222   -0.5945   -2.4721 H   0  0  0  0  0  0  0  0  0  0  0  0
    2.9229   -0.5581   -4.2186 H   0  0  0  0  0  0  0  0  0  0  0  0
    4.3342   -0.3564   -3.1814 H   0  0  0  0  0  0  0  0  0  0  0  0
    4.8636   -1.1901   -1.3494 H   0  0  0  0  0  0  0  0  0  0  0  0
    3.5179   -1.8258   -0.4576 H   0  0  0  0  0  0  0  0  0  0  0  0
    6.4244   -3.8541   -1.8326 H   0  0  0  0  0  0  0  0  0  0  0  0
    7.6088   -3.3298   -0.6384 H   0  0  0  0  0  0  0  0  0  0  0  0
    6.8926   -2.1881   -1.7353 H   0  0  0  0  0  0  0  0  0  0  0  0
    5.4285   -0.6569    2.6612 H   0  0  0  0  0  0  0  0  0  0  0  0
    4.1099   -0.8573    1.5608 H   0  0  0  0  0  0  0  0  0  0  0  0
    5.4338   -2.8373    3.3644 H   0  0  0  0  0  0  0  0  0  0  0  0
    3.7887   -2.3701    3.4929 H   0  0  0  0  0  0  0  0  0  0  0  0
    2.2481   -3.7725    0.5276 H   0  0  0  0  0  0  0  0  0  0  0  0
    2.6109   -2.2424    1.2129 H   0  0  0  0  0  0  0  0  0  0  0  0
    1.9130   -3.3835    2.2273 H   0  0  0  0  0  0  0  0  0  0  0  0
    4.4398   -4.6255   -0.1229 H   0  0  0  0  0  0  0  0  0  0  0  0
    6.5568   -5.5229   -0.0329 H   0  0  0  0  0  0  0  0  0  0  0  0
    7.0938   -4.4475    1.2166 H   0  0  0  0  0  0  0  0  0  0  0  0
    5.5908   -7.0607    1.5334 H   0  0  0  0  0  0  0  0  0  0  0  0
    7.8364   -7.0433    1.5997 H   0  0  0  0  0  0  0  0  0  0  0  0
    6.0037   -4.6979    3.1856 H   0  0  0  0  0  0  0  0  0  0  0  0
    5.3963   -4.7238    6.5019 H   0  0  0  0  0  0  0  0  0  0  0  0
    4.6821   -3.9145    5.1631 H   0  0  0  0  0  0  0  0  0  0  0  0
    6.4238   -4.1692    5.2455 H   0  0  0  0  0  0  0  0  0  0  0  0
    6.4249   -7.8871    4.7126 H   0  0  0  0  0  0  0  0  0  0  0  0
    7.3587   -6.5102    5.1173 H   0  0  0  0  0  0  0  0  0  0  0  0
    6.6709   -8.0416    7.0684 H   0  0  0  0  0  0  0  0  0  0  0  0
    6.5908   -6.3551    7.2844 H   0  0  0  0  0  0  0  0  0  0  0  0
    3.6600   -6.6484    9.1807 H   0  0  0  0  0  0  0  0  0  0  0  0
    4.7626   -5.4714    8.5101 H   0  0  0  0  0  0  0  0  0  0  0  0
    5.3788   -6.9067    9.3000 H   0  0  0  0  0  0  0  0  0  0  0  0
    4.6048   -9.4696    6.8430 H   0  0  0  0  0  0  0  0  0  0  0  0
    4.9469   -9.0983    8.4744 H   0  0  0  0  0  0  0  0  0  0  0  0
    2.7425  -10.1476    8.2224 H   0  0  0  0  0  0  0  0  0  0  0  0
    2.5835   -8.5761    8.9431 H   0  0  0  0  0  0  0  0  0  0  0  0
    2.2360   -9.2344    6.0090 H   0  0  0  0  0  0  0  0  0  0  0  0
    0.0650   -8.7468    8.0729 H   0  0  0  0  0  0  0  0  0  0  0  0
    0.4299  -10.2342    7.2121 H   0  0  0  0  0  0  0  0  0  0  0  0
   -0.1917   -8.8547    6.3251 H   0  0  0  0  0  0  0  0  0  0  0  0
    1.4896   -7.0180    5.6248 H   0  0  0  0  0  0  0  0  0  0  0  0
    1.5921   -6.4125    8.5892 H   0  0  0  0  0  0  0  0  0  0  0  0
    0.1961   -6.4634    7.5287 H   0  0  0  0  0  0  0  0  0  0  0  0
    1.3883   -5.2072    7.3201 H   0  0  0  0  0  0  0  0  0  0  0  0
    3.4438   -5.6168    6.5910 H   0  0  0  0  0  0  0  0  0  0  0  0
    2.9743   -8.5255    4.0397 H   0  0  0  0  0  0  0  0  0  0  0  0
    4.4032   -8.7788    4.9348 H   0  0  0  0  0  0  0  0  0  0  0  0
    4.5586   -8.1935    3.3585 H   0  0  0  0  0  0  0  0  0  0  0  0
    2.6905   -4.7605    4.3992 H   0  0  0  0  0  0  0  0  0  0  0  0
    1.6288   -7.2245    3.2431 H   0  0  0  0  0  0  0  0  0  0  0  0
    1.1238   -4.5660    2.6715 H   0  0  0  0  0  0  0  0  0  0  0  0
    3.4798   -7.3008    1.8759 H   0  0  0  0  0  0  0  0  0  0  0  0
    3.3405   -6.2555   -0.0251 H   0  0  0  0  0  0  0  0  0  0  0  0
  1  2  1  0
  1 40  1  0
  1 41  1  0
  1 42  1  0
  2  3  2  0
  2  4  1  0
  4  5  1  0
  6  5  1  6
  5 43  1  0
  5 44  1  0
  6 14  1  0
  6  7  1  0
  6  8  1  0
  7 45  1  0
  7 46  1  0
  7 47  1  0
  8  9  2  0
  8 10  1  0
 10 11  1  0
 10 48  1  0
 10 49  1  0
 11 12  1  0
 11 50  1  0
 11 51  1  0
 39 12  1  6
 12 13  1  6
 12 14  1  0
 13 52  1  0
 13 53  1  0
 13 54  1  0
 14 15  1  0
 14 55  1  6
 15 16  1  0
 15 56  1  0
 15 57  1  0
 16 17  1  0
 16 18  1  0
 16 58  1  6
 17 59  1  0
 18 39  1  0
 18 19  1  0
 18 60  1  1
 19 32  1  0
 19 20  1  1
 19 21  1  0
 20 61  1  0
 20 62  1  0
 20 63  1  0
 21 22  1  0
 21 64  1  0
 21 65  1  0
 22 23  1  0
 22 66  1  0
 22 67  1  0
 23 31  1  0
 23 24  1  1
 23 25  1  0
 24 68  1  0
 24 69  1  0
 24 70  1  0
 25 26  1  0
 25 71  1  0
 25 72  1  0
 26 27  1  0
 26 73  1  0
 26 74  1  0
 27 28  1  0
 27 29  1  0
 27 75  1  6
 28 76  1  0
 28 77  1  0
 28 78  1  0
 29 30  1  0
 29 31  1  0
 29 79  1  6
 30 80  1  0
 30 81  1  0
 30 82  1  0
 31 32  1  0
 31 83  1  1
 32 33  1  6
 32 34  1  0
 33 84  1  0
 33 85  1  0
 33 86  1  0
 34 39  1  0
 34 35  1  0
 34 87  1  1
 35 36  1  0
 35 37  1  0
 35 88  1  1
 36 89  1  0
 37 38  1  0
 37 39  1  0
 37 90  1  6
 38 91  1  0
M  END
>  <i_m_ct_stereo_status>  (123) 
1

>  <s_m_source_file>  (123) 
/var/tmp/pbs.5083858.sched01/tmplbv9mpj5/50fwxwtu4n.sdf

>  <i_m_source_file_index>  (123) 
4

>  <i_lp_mmshare_version>  (123) 
48012

>  <i_f3d_flags>  (123) 
0

>  <s_epik_input>  (123) 
W0NIM11DKD1PKU9bQ0gyXVtDQEBdKFtDSDNdKShDKD1PKVtDSDJdW0NIMl0xKVtDQEhdKFtDQF0xKFtDQEBdMjM0KVtDSDNdKVtDSDJdW0NAQEhdKFtPSF0pW0NAQEhdMltDQEBdNShbQ0gzXSlbQ0BdKFtDSDNdKShbQ0BASF0zW0NAQEhdKFtPSF0pW0NASF00W09IXSlbQ0BASF02W0NAXShbQ0gzXSkoW0NIMl1bQ0gyXTUpW0NIMl1bQ0gyXVtDQEBIXShbQ0gzXSlbQ0BIXTZbQ0gzXQ==

>  <s_epik_cmdline>  (123) 
J2VwaWtfcHl0aG9uJywgJy1waHQnLCAnMi4wJywgJy1waCcsICc3LjAnLCAnLXRuJywgJzgnLCAnLW1hJywgJzIwMCcsICctaW1hZScsICc8aW5maWxlLm1hZT4nLCAnLW9tYWUnLCAnPG91dGZpbGUubWFlPic=

>  <r_lp_tautomer_probability>  (123) 
1

>  <r_epik_Ionization_Penalty>  (123) 
2.0355e-06

>  <r_epik_Ionization_Penalty_Charging>  (123) 
0

>  <r_epik_Ionization_Penalty_Neutral>  (123) 
2.0355e-06

>  <r_epik_State_Penalty>  (123) 
-0

>  <r_epik_Charging_Adjusted_Penalty>  (123) 
0

>  <i_epik_Tot_Q>  (123) 
0

>  <i_epik_Tot_abs_Q>  (123) 
0

>  <s_epik_Chemistry_Notes>  (123) 
This compound has an ester and may undergo hydrolysis at high or low pH.

>  <s_lp_Force_Field>  (123) 
OPLS3e

>  <r_lp_Energy>  (123) 
143.514

>  <b_lp_Chiralities_Consistent>  (123) 
1

>  <s_lp_Variant>  (123) 
40:0-1

>  <s_i_glide_gridfile>  (123) 
pfpi4k_grid

>  <i_i_glide_lignum>  (123) 
4

>  <i_i_glide_rotatable_bonds>  (123) 
6

>  <r_i_docking_score>  (123) 
-3.36776

>  <r_i_glide_ligand_efficiency>  (123) 
-0.0863528

>  <r_i_glide_ligand_efficiency_sa>  (123) 
-0.29284

>  <r_i_glide_ligand_efficiency_ln>  (123) 
-0.722143

>  <r_i_glide_gscore>  (123) 
-3.36776

>  <r_i_glide_lipo>  (123) 
-0.520405

>  <r_i_glide_hbond>  (123) 
-0.208599

>  <r_i_glide_metal>  (123) 
-0

>  <r_i_glide_rewards>  (123) 
-0.371676

>  <r_i_glide_evdw>  (123) 
-35.079

>  <r_i_glide_ecoul>  (123) 
-4.35088

>  <r_i_glide_erotb>  (123) 
0.139505

>  <r_i_glide_esite>  (123) 
0

>  <r_i_glide_emodel>  (123) 
-43.3394

>  <r_i_glide_energy>  (123) 
-39.4299

>  <r_i_glide_einternal>  (123) 
10.0707

>  <r_i_glide_intrahb_reward>  (123) 
-0

>  <i_i_glide_confnum>  (123) 
1

>  <i_i_glide_posenum>  (123) 
39

>  <r_i_glide_eff_state_penalty>  (123) 
0

>  <ligand_id>  (123) 
40

>  <original_smiles>  (123) 
CC(=O)OCC1(C)C(=O)CCC2(C)C1CC(O)C1C3(C)CCC4(C)CCC(C)C(C)C4C3(C)C3C(O)C(O)C132

>  <smiles>  (123) 
[H]OC1([H])C([H])([H])C2([H])C(C([H])([H])[H])(C([H])([H])OC(=O)C([H])([H])[H])C(=O)C([H])([H])C([H])([H])C2(C([H])([H])[H])C23C([H])(O[H])C([H])(O[H])C2([H])C2(C([H])([H])[H])C4([H])C([H])(C([H])([H])[H])C([H])(C([H])([H])[H])C([H])([H])C([H])([H])C4(C([H])([H])[H])C([H])([H])C([H])([H])C2(C([H])([H])[H])C13[H]

$$$$
41:0:0
     RDKit          3D

 48 52  0  0  1  0  0  0  0  0999 V2000
   -1.4411   -8.1752    2.8838 N   0  0  0  0  0  0  0  0  0  0  0  0
   -0.1397   -8.0192    2.6236 C   0  0  0  0  0  0  0  0  0  0  0  0
    0.2986   -6.8136    2.1683 N   0  0  0  0  0  0  0  0  0  0  0  0
    1.6015   -6.6632    1.8911 C   0  0  0  0  0  0  0  0  0  0  0  0
    1.9625   -5.4185    1.4076 N   0  0  0  0  0  0  0  0  0  0  0  0
    3.1965   -5.1054    0.6838 C   0  0  2  0  0  0  0  0  0  0  0  0
    4.3353   -4.6513    1.5943 C   0  0  0  0  0  0  0  0  0  0  0  0
    5.2092   -3.7627    0.7052 C   0  0  0  0  0  0  0  0  0  0  0  0
    4.3217   -3.2332   -0.3257 N   0  0  0  0  0  0  0  0  0  0  0  0
    4.6910   -2.2662   -1.1974 C   0  0  0  0  0  0  0  0  0  0  0  0
    5.8342   -1.7951   -1.1973 O   0  0  0  0  0  0  0  0  0  0  0  0
    3.6558   -1.7898   -2.1808 C   0  0  0  0  0  0  0  0  0  0  0  0
    4.0157   -1.8463   -3.6499 C   0  0  0  0  0  0  0  0  0  0  0  0
    3.9455   -0.5151   -2.9459 C   0  0  0  0  0  0  0  0  0  0  0  0
    3.0266   -3.9191   -0.2766 C   0  0  0  0  0  0  0  0  0  0  0  0
    2.5832   -7.5619    2.0187 N   0  0  0  0  0  0  0  0  0  0  0  0
    2.1374   -8.7567    2.4942 C   0  0  0  0  0  0  0  0  0  0  0  0
    0.7930   -9.0685    2.8200 C   0  0  0  0  0  0  0  0  0  0  0  0
    0.7033  -10.3787    3.2758 N   0  0  0  0  0  0  0  0  0  0  0  0
    1.9334  -10.8172    3.2289 C   0  0  0  0  0  0  0  0  0  0  0  0
    2.8591   -9.9114    2.7557 N   0  0  0  0  0  0  0  0  0  0  0  0
    4.2918  -10.1310    2.6084 C   0  0  0  0  0  0  0  0  0  0  0  0
    4.8380   -9.5533    1.3173 C   0  0  0  0  0  0  0  0  0  0  0  0
    6.3207   -9.3433    1.1135 C   0  0  0  0  0  0  0  0  0  0  0  0
    5.4123   -8.1600    1.2974 C   0  0  0  0  0  0  0  0  0  0  0  0
   -1.7369   -9.0750    3.2438 H   0  0  0  0  0  0  0  0  0  0  0  0
    3.5300   -5.9652    0.0969 H   0  0  0  0  0  0  0  0  0  0  0  0
    3.9474   -4.0529    2.4174 H   0  0  0  0  0  0  0  0  0  0  0  0
    4.8984   -5.4737    2.0321 H   0  0  0  0  0  0  0  0  0  0  0  0
    5.6747   -2.9646    1.2869 H   0  0  0  0  0  0  0  0  0  0  0  0
    5.9979   -4.3478    0.2300 H   0  0  0  0  0  0  0  0  0  0  0  0
    2.6121   -1.9659   -1.9326 H   0  0  0  0  0  0  0  0  0  0  0  0
    4.9977   -2.2312   -3.9197 H   0  0  0  0  0  0  0  0  0  0  0  0
    3.2146   -2.0882   -4.3453 H   0  0  0  0  0  0  0  0  0  0  0  0
    3.1001    0.1321   -3.1691 H   0  0  0  0  0  0  0  0  0  0  0  0
    4.8764    0.0055   -2.7303 H   0  0  0  0  0  0  0  0  0  0  0  0
    2.7029   -4.2546   -1.2652 H   0  0  0  0  0  0  0  0  0  0  0  0
    2.2862   -3.2142    0.1009 H   0  0  0  0  0  0  0  0  0  0  0  0
    2.2013  -11.8254    3.5221 H   0  0  0  0  0  0  0  0  0  0  0  0
    4.8077   -9.6986    3.4670 H   0  0  0  0  0  0  0  0  0  0  0  0
    4.4904  -11.2028    2.6135 H   0  0  0  0  0  0  0  0  0  0  0  0
    4.2728   -9.8572    0.4376 H   0  0  0  0  0  0  0  0  0  0  0  0
    6.9933   -9.5760    1.9368 H   0  0  0  0  0  0  0  0  0  0  0  0
    6.7266   -9.4906    0.1155 H   0  0  0  0  0  0  0  0  0  0  0  0
    5.1549   -7.5519    0.4348 H   0  0  0  0  0  0  0  0  0  0  0  0
    5.4374   -7.6394    2.2518 H   0  0  0  0  0  0  0  0  0  0  0  0
    1.3664   -4.6400    1.6327 H   0  0  0  0  0  0  0  0  0  0  0  0
   -2.0979   -7.4338    2.7196 H   0  0  0  0  0  0  0  0  0  0  0  0
  1  2  1  0
  1 26  1  0
  1 48  1  0
  2 18  2  0
  2  3  1  0
  3  4  2  0
  4  5  1  0
  4 16  1  0
  5  6  1  0
  5 47  1  0
  6 15  1  0
  6  7  1  0
  6 27  1  6
  7  8  1  0
  7 28  1  0
  7 29  1  0
  8  9  1  0
  8 30  1  0
  8 31  1  0
  9 10  1  0
  9 15  1  0
 10 11  2  0
 10 12  1  0
 12 14  1  0
 12 13  1  0
 12 32  1  0
 13 14  1  0
 13 33  1  0
 13 34  1  0
 14 35  1  0
 14 36  1  0
 15 37  1  0
 15 38  1  0
 16 17  2  0
 17 21  1  0
 17 18  1  0
 18 19  1  0
 19 20  2  0
 20 21  1  0
 20 39  1  0
 21 22  1  0
 22 23  1  0
 22 40  1  0
 22 41  1  0
 23 25  1  0
 23 24  1  0
 23 42  1  0
 24 25  1  0
 24 43  1  0
 24 44  1  0
 25 45  1  0
 25 46  1  0
M  END
>  <i_m_ct_stereo_status>  (124) 
1

>  <s_m_source_file>  (124) 
/var/tmp/pbs.5083858.sched01/tmplbv9mpj5/50fwxwtu4n.sdf

>  <i_m_source_file_index>  (124) 
5

>  <i_lp_mmshare_version>  (124) 
48012

>  <i_f3d_flags>  (124) 
0

>  <s_epik_input>  (124) 
W0NIMl0xW0NIMl1bQ0hdMVtDSDJdbjJbY0hdbmMoYzIzKWMoPU5cW0hdKS9bbkhdL2MoW25IXTMpPU4vW0NAQEhdNFtDSDJdW0NIMl1OKFtDSDJdNClDKD1PKVtDSF01W0NIMl1bQ0gyXTU=

>  <s_epik_cmdline>  (124) 
J2VwaWtfcHl0aG9uJywgJy1waHQnLCAnMi4wJywgJy1waCcsICc3LjAnLCAnLXRuJywgJzgnLCAnLW1hJywgJzIwMCcsICctaW1hZScsICc8aW5maWxlLm1hZT4nLCAnLW9tYWUnLCAnPG91dGZpbGUubWFlPic=

>  <r_epik_Ionization_Penalty>  (124) 
0.0127937

>  <r_epik_Ionization_Penalty_Charging>  (124) 
0

>  <r_epik_Ionization_Penalty_Neutral>  (124) 
0.0127937

>  <r_epik_State_Penalty>  (124) 
0.00930472

>  <r_epik_Charging_Adjusted_Penalty>  (124) 
0.00930472

>  <i_epik_Tot_Q>  (124) 
0

>  <i_epik_Tot_abs_Q>  (124) 
0

>  <s_lp_Force_Field>  (124) 
OPLS3e

>  <r_lp_Energy>  (124) 
33.2589

>  <b_lp_Chiralities_Consistent>  (124) 
1

>  <s_lp_Variant>  (124) 
41:0-1

>  <s_i_glide_gridfile>  (124) 
pfpi4k_grid

>  <i_i_glide_lignum>  (124) 
5

>  <i_i_glide_rotatable_bonds>  (124) 
6

>  <r_i_docking_score>  (124) 
-3.5647

>  <r_i_glide_ligand_efficiency>  (124) 
-0.142588

>  <r_i_glide_ligand_efficiency_sa>  (124) 
-0.41693

>  <r_i_glide_ligand_efficiency_ln>  (124) 
-0.844942

>  <r_i_glide_gscore>  (124) 
-3.5647

>  <r_i_glide_lipo>  (124) 
-0.563236

>  <r_i_glide_hbond>  (124) 
-0.048866

>  <r_i_glide_metal>  (124) 
-0

>  <r_i_glide_rewards>  (124) 
-1.25424

>  <r_i_glide_evdw>  (124) 
-34.1119

>  <r_i_glide_ecoul>  (124) 
-5.28957

>  <r_i_glide_erotb>  (124) 
0.975432

>  <r_i_glide_esite>  (124) 
-0.174764

>  <r_i_glide_emodel>  (124) 
-45.3694

>  <r_i_glide_energy>  (124) 
-39.4014

>  <r_i_glide_einternal>  (124) 
4.32399

>  <r_i_glide_intrahb_reward>  (124) 
-0

>  <i_i_glide_confnum>  (124) 
9

>  <i_i_glide_posenum>  (124) 
10

>  <r_i_glide_eff_state_penalty>  (124) 
0

>  <ligand_id>  (124) 
41

>  <original_smiles>  (124) 
N=c1[nH]c(=NC2CCN(C(=O)C3CC3)C2)[nH]c2c1ncn2CC1CC1

>  <smiles>  (124) 
[H]c1nc2c(N([H])[H])nc(N([H])C3([H])C([H])([H])N(C(=O)C4([H])C([H])([H])C4([H])[H])C([H])([H])C3([H])[H])nc2n1C([H])([H])C1([H])C([H])([H])C1([H])[H]

$$$$
41:0:1
     RDKit          3D

 48 52  0  0  1  0  0  0  0  0999 V2000
   -1.5711   -8.1762    2.9321 N   0  0  0  0  0  0  0  0  0  0  0  0
   -0.2597   -7.9816    2.7558 C   0  0  0  0  0  0  0  0  0  0  0  0
    0.1806   -6.7402    2.4133 N   0  0  0  0  0  0  0  0  0  0  0  0
    1.4971   -6.5424    2.2457 C   0  0  0  0  0  0  0  0  0  0  0  0
    1.8599   -5.2471    1.9141 N   0  0  0  0  0  0  0  0  0  0  0  0
    3.2065   -4.8039    1.5377 C   0  0  2  0  0  0  0  0  0  0  0  0
    3.6514   -3.5712    2.3126 C   0  0  0  0  0  0  0  0  0  0  0  0
    4.6671   -2.8887    1.3912 C   0  0  0  0  0  0  0  0  0  0  0  0
    4.3115   -3.2968    0.0328 N   0  0  0  0  0  0  0  0  0  0  0  0
    4.8684   -2.7556   -1.0753 C   0  0  0  0  0  0  0  0  0  0  0  0
    5.7800   -1.9219   -1.0034 O   0  0  0  0  0  0  0  0  0  0  0  0
    4.3336   -3.2020   -2.4103 C   0  0  0  0  0  0  0  0  0  0  0  0
    5.3382   -3.4420   -3.5164 C   0  0  0  0  0  0  0  0  0  0  0  0
    4.4445   -2.2287   -3.5658 C   0  0  0  0  0  0  0  0  0  0  0  0
    3.3070   -4.3641    0.0743 C   0  0  0  0  0  0  0  0  0  0  0  0
    2.4884   -7.4311    2.3703 N   0  0  0  0  0  0  0  0  0  0  0  0
    2.0377   -8.6687    2.7143 C   0  0  0  0  0  0  0  0  0  0  0  0
    0.6823   -9.0266    2.9281 C   0  0  0  0  0  0  0  0  0  0  0  0
    0.5951  -10.3697    3.2756 N   0  0  0  0  0  0  0  0  0  0  0  0
    1.8336  -10.7849    3.2662 C   0  0  0  0  0  0  0  0  0  0  0  0
    2.7649   -9.8288    2.9236 N   0  0  0  0  0  0  0  0  0  0  0  0
    4.2051  -10.0093    2.8372 C   0  0  0  0  0  0  0  0  0  0  0  0
    4.7654   -9.4971    1.5229 C   0  0  0  0  0  0  0  0  0  0  0  0
    6.2511   -9.2974    1.3323 C   0  0  0  0  0  0  0  0  0  0  0  0
    5.3361   -8.1035    1.4283 C   0  0  0  0  0  0  0  0  0  0  0  0
   -1.8685   -9.1019    3.2167 H   0  0  0  0  0  0  0  0  0  0  0  0
    3.9618   -5.5740    1.7008 H   0  0  0  0  0  0  0  0  0  0  0  0
    2.8084   -2.8989    2.4711 H   0  0  0  0  0  0  0  0  0  0  0  0
    4.0685   -3.8186    3.2904 H   0  0  0  0  0  0  0  0  0  0  0  0
    4.6334   -1.8033    1.5091 H   0  0  0  0  0  0  0  0  0  0  0  0
    5.6807   -3.2259    1.6147 H   0  0  0  0  0  0  0  0  0  0  0  0
    3.4522   -3.8403   -2.4210 H   0  0  0  0  0  0  0  0  0  0  0  0
    6.3920   -3.2879   -3.2880 H   0  0  0  0  0  0  0  0  0  0  0  0
    5.1273   -4.2540   -4.2093 H   0  0  0  0  0  0  0  0  0  0  0  0
    3.6305   -2.2256   -4.2879 H   0  0  0  0  0  0  0  0  0  0  0  0
    4.8944   -1.2561   -3.3745 H   0  0  0  0  0  0  0  0  0  0  0  0
    3.5861   -5.2081   -0.5583 H   0  0  0  0  0  0  0  0  0  0  0  0
    2.3605   -3.9570   -0.2813 H   0  0  0  0  0  0  0  0  0  0  0  0
    2.1054  -11.8093    3.4926 H   0  0  0  0  0  0  0  0  0  0  0  0
    4.6770   -9.4985    3.6765 H   0  0  0  0  0  0  0  0  0  0  0  0
    4.4355  -11.0706    2.9285 H   0  0  0  0  0  0  0  0  0  0  0  0
    4.2202   -9.8529    0.6482 H   0  0  0  0  0  0  0  0  0  0  0  0
    6.9052   -9.4967    2.1786 H   0  0  0  0  0  0  0  0  0  0  0  0
    6.6702   -9.5173    0.3532 H   0  0  0  0  0  0  0  0  0  0  0  0
    5.1083   -7.5483    0.5209 H   0  0  0  0  0  0  0  0  0  0  0  0
    5.3563   -7.5187    2.3451 H   0  0  0  0  0  0  0  0  0  0  0  0
    1.1488   -4.5357    1.9641 H   0  0  0  0  0  0  0  0  0  0  0  0
   -2.2316   -7.4302    2.8067 H   0  0  0  0  0  0  0  0  0  0  0  0
  1  2  1  0
  1 26  1  0
  1 48  1  0
  2 18  2  0
  2  3  1  0
  3  4  2  0
  4  5  1  0
  4 16  1  0
  5  6  1  0
  5 47  1  0
  6 15  1  0
  6  7  1  0
  6 27  1  6
  7  8  1  0
  7 28  1  0
  7 29  1  0
  8  9  1  0
  8 30  1  0
  8 31  1  0
  9 10  1  0
  9 15  1  0
 10 11  2  0
 10 12  1  0
 12 14  1  0
 12 13  1  0
 12 32  1  0
 13 14  1  0
 13 33  1  0
 13 34  1  0
 14 35  1  0
 14 36  1  0
 15 37  1  0
 15 38  1  0
 16 17  2  0
 17 21  1  0
 17 18  1  0
 18 19  1  0
 19 20  2  0
 20 21  1  0
 20 39  1  0
 21 22  1  0
 22 23  1  0
 22 40  1  0
 22 41  1  0
 23 25  1  0
 23 24  1  0
 23 42  1  0
 24 25  1  0
 24 43  1  0
 24 44  1  0
 25 45  1  0
 25 46  1  0
M  END
>  <i_m_ct_stereo_status>  (125) 
1

>  <s_m_source_file>  (125) 
/var/tmp/pbs.5083858.sched01/tmplbv9mpj5/50fwxwtu4n.sdf

>  <i_m_source_file_index>  (125) 
5

>  <i_lp_mmshare_version>  (125) 
48012

>  <i_f3d_flags>  (125) 
0

>  <s_epik_input>  (125) 
W0NIMl0xW0NIMl1bQ0hdMVtDSDJdbjJbY0hdbmMoYzIzKWMoPU5cW0hdKS9bbkhdL2MoW25IXTMpPU4vW0NAQEhdNFtDSDJdW0NIMl1OKFtDSDJdNClDKD1PKVtDSF01W0NIMl1bQ0gyXTU=

>  <s_epik_cmdline>  (125) 
J2VwaWtfcHl0aG9uJywgJy1waHQnLCAnMi4wJywgJy1waCcsICc3LjAnLCAnLXRuJywgJzgnLCAnLW1hJywgJzIwMCcsICctaW1hZScsICc8aW5maWxlLm1hZT4nLCAnLW9tYWUnLCAnPG91dGZpbGUubWFlPic=

>  <r_epik_Ionization_Penalty>  (125) 
0.0127937

>  <r_epik_Ionization_Penalty_Charging>  (125) 
0

>  <r_epik_Ionization_Penalty_Neutral>  (125) 
0.0127937

>  <r_epik_State_Penalty>  (125) 
0.00930472

>  <r_epik_Charging_Adjusted_Penalty>  (125) 
0.00930472

>  <i_epik_Tot_Q>  (125) 
0

>  <i_epik_Tot_abs_Q>  (125) 
0

>  <s_lp_Force_Field>  (125) 
OPLS3e

>  <r_lp_Energy>  (125) 
33.2589

>  <b_lp_Chiralities_Consistent>  (125) 
1

>  <s_lp_Variant>  (125) 
41:0-1

>  <s_i_glide_gridfile>  (125) 
pfpi4k_grid

>  <i_i_glide_lignum>  (125) 
5

>  <i_i_glide_rotatable_bonds>  (125) 
6

>  <r_i_docking_score>  (125) 
-3.40675

>  <r_i_glide_ligand_efficiency>  (125) 
-0.13627

>  <r_i_glide_ligand_efficiency_sa>  (125) 
-0.398456

>  <r_i_glide_ligand_efficiency_ln>  (125) 
-0.807502

>  <r_i_glide_gscore>  (125) 
-3.40675

>  <r_i_glide_lipo>  (125) 
-0.513315

>  <r_i_glide_hbond>  (125) 
-0.0682512

>  <r_i_glide_metal>  (125) 
-0

>  <r_i_glide_rewards>  (125) 
-1.26627

>  <r_i_glide_evdw>  (125) 
-32.479

>  <r_i_glide_ecoul>  (125) 
-5.14839

>  <r_i_glide_erotb>  (125) 
0.975432

>  <r_i_glide_esite>  (125) 
-0.138141

>  <r_i_glide_emodel>  (125) 
-44.8845

>  <r_i_glide_energy>  (125) 
-37.6274

>  <r_i_glide_einternal>  (125) 
2.61647

>  <r_i_glide_intrahb_reward>  (125) 
-0

>  <i_i_glide_confnum>  (125) 
9

>  <i_i_glide_posenum>  (125) 
1

>  <r_i_glide_eff_state_penalty>  (125) 
0

>  <ligand_id>  (125) 
41

>  <original_smiles>  (125) 
N=c1[nH]c(=NC2CCN(C(=O)C3CC3)C2)[nH]c2c1ncn2CC1CC1

>  <smiles>  (125) 
[H]c1nc2c(N([H])[H])nc(N([H])C3([H])C([H])([H])N(C(=O)C4([H])C([H])([H])C4([H])[H])C([H])([H])C3([H])[H])nc2n1C([H])([H])C1([H])C([H])([H])C1([H])[H]

$$$$
41:0:2
     RDKit          3D

 48 52  0  0  1  0  0  0  0  0999 V2000
    4.6004   -1.3534   -1.7870 N   0  0  0  0  0  0  0  0  0  0  0  0
    4.1910   -2.0372   -0.7272 C   0  0  0  0  0  0  0  0  0  0  0  0
    4.1940   -3.3986   -0.7857 N   0  0  0  0  0  0  0  0  0  0  0  0
    3.8454   -4.1047    0.2929 C   0  0  0  0  0  0  0  0  0  0  0  0
    3.9196   -5.4769    0.1448 N   0  0  0  0  0  0  0  0  0  0  0  0
    3.7247   -6.4601    1.2204 C   0  0  2  0  0  0  0  0  0  0  0  0
    4.3457   -7.8127    0.9050 C   0  0  0  0  0  0  0  0  0  0  0  0
    3.5281   -8.8132    1.7294 C   0  0  0  0  0  0  0  0  0  0  0  0
    2.2187   -8.2011    1.9248 N   0  0  0  0  0  0  0  0  0  0  0  0
    1.1672   -8.8462    2.4801 C   0  0  0  0  0  0  0  0  0  0  0  0
    1.2633  -10.0078    2.8817 O   0  0  0  0  0  0  0  0  0  0  0  0
   -0.1334   -8.0911    2.5883 C   0  0  0  0  0  0  0  0  0  0  0  0
   -0.9798   -8.3328    3.8207 C   0  0  0  0  0  0  0  0  0  0  0  0
   -1.4123   -8.8950    2.4930 C   0  0  0  0  0  0  0  0  0  0  0  0
    2.2566   -6.8127    1.4780 C   0  0  0  0  0  0  0  0  0  0  0  0
    3.4571   -3.6503    1.4941 N   0  0  0  0  0  0  0  0  0  0  0  0
    3.4236   -2.2794    1.5282 C   0  0  0  0  0  0  0  0  0  0  0  0
    3.7876   -1.4027    0.4751 C   0  0  0  0  0  0  0  0  0  0  0  0
    3.6800   -0.0695    0.8881 N   0  0  0  0  0  0  0  0  0  0  0  0
    3.2236   -0.1658    2.1063 C   0  0  0  0  0  0  0  0  0  0  0  0
    3.0439   -1.4533    2.5830 N   0  0  0  0  0  0  0  0  0  0  0  0
    2.5940   -1.8230    3.9128 C   0  0  0  0  0  0  0  0  0  0  0  0
    1.3095   -2.6144    3.8726 C   0  0  0  0  0  0  0  0  0  0  0  0
    0.9223   -3.5397    5.0063 C   0  0  0  0  0  0  0  0  0  0  0  0
    1.3599   -4.1057    3.6958 C   0  0  0  0  0  0  0  0  0  0  0  0
    4.5298   -0.3497   -1.7451 H   0  0  0  0  0  0  0  0  0  0  0  0
    4.1699   -6.0997    2.1542 H   0  0  0  0  0  0  0  0  0  0  0  0
    4.2224   -8.0489   -0.1504 H   0  0  0  0  0  0  0  0  0  0  0  0
    5.4129   -7.8544    1.1327 H   0  0  0  0  0  0  0  0  0  0  0  0
    3.4465   -9.7727    1.2147 H   0  0  0  0  0  0  0  0  0  0  0  0
    3.9986   -8.9871    2.6990 H   0  0  0  0  0  0  0  0  0  0  0  0
   -0.1928   -7.0895    2.1679 H   0  0  0  0  0  0  0  0  0  0  0  0
   -0.6201   -9.0381    4.5688 H   0  0  0  0  0  0  0  0  0  0  0  0
   -1.5406   -7.4897    4.2192 H   0  0  0  0  0  0  0  0  0  0  0  0
   -2.2628   -8.4289    2.0021 H   0  0  0  0  0  0  0  0  0  0  0  0
   -1.3364   -9.9714    2.3499 H   0  0  0  0  0  0  0  0  0  0  0  0
    1.8538   -6.1750    2.2468 H   0  0  0  0  0  0  0  0  0  0  0  0
    1.6526   -6.7063    0.5811 H   0  0  0  0  0  0  0  0  0  0  0  0
    3.0172    0.7196    2.6985 H   0  0  0  0  0  0  0  0  0  0  0  0
    3.3777   -2.3952    4.4051 H   0  0  0  0  0  0  0  0  0  0  0  0
    2.4186   -0.9305    4.5077 H   0  0  0  0  0  0  0  0  0  0  0  0
    0.4859   -2.1115    3.3665 H   0  0  0  0  0  0  0  0  0  0  0  0
    1.6180   -3.6671    5.8320 H   0  0  0  0  0  0  0  0  0  0  0  0
   -0.1316   -3.6668    5.2431 H   0  0  0  0  0  0  0  0  0  0  0  0
    0.6121   -4.5337    3.0375 H   0  0  0  0  0  0  0  0  0  0  0  0
    2.3401   -4.5697    3.6721 H   0  0  0  0  0  0  0  0  0  0  0  0
    4.0817   -5.7898   -0.8043 H   0  0  0  0  0  0  0  0  0  0  0  0
    4.8236   -1.8388   -2.6331 H   0  0  0  0  0  0  0  0  0  0  0  0
  1  2  1  0
  1 26  1  0
  1 48  1  0
  2 18  2  0
  2  3  1  0
  3  4  2  0
  4  5  1  0
  4 16  1  0
  5  6  1  0
  5 47  1  0
  6 15  1  0
  6  7  1  0
  6 27  1  1
  7  8  1  0
  7 28  1  0
  7 29  1  0
  8  9  1  0
  8 30  1  0
  8 31  1  0
  9 10  1  0
  9 15  1  0
 10 11  2  0
 10 12  1  0
 12 14  1  0
 12 13  1  0
 12 32  1  0
 13 14  1  0
 13 33  1  0
 13 34  1  0
 14 35  1  0
 14 36  1  0
 15 37  1  0
 15 38  1  0
 16 17  2  0
 17 21  1  0
 17 18  1  0
 18 19  1  0
 19 20  2  0
 20 21  1  0
 20 39  1  0
 21 22  1  0
 22 23  1  0
 22 40  1  0
 22 41  1  0
 23 25  1  0
 23 24  1  0
 23 42  1  0
 24 25  1  0
 24 43  1  0
 24 44  1  0
 25 45  1  0
 25 46  1  0
M  END
>  <i_m_ct_stereo_status>  (126) 
1

>  <s_m_source_file>  (126) 
/var/tmp/pbs.5083858.sched01/tmplbv9mpj5/50fwxwtu4n.sdf

>  <i_m_source_file_index>  (126) 
5

>  <i_lp_mmshare_version>  (126) 
48012

>  <i_f3d_flags>  (126) 
0

>  <s_epik_input>  (126) 
W0NIMl0xW0NIMl1bQ0hdMVtDSDJdbjJbY0hdbmMoYzIzKWMoPU5cW0hdKS9bbkhdL2MoW25IXTMpPU4vW0NAQEhdNFtDSDJdW0NIMl1OKFtDSDJdNClDKD1PKVtDSF01W0NIMl1bQ0gyXTU=

>  <s_epik_cmdline>  (126) 
J2VwaWtfcHl0aG9uJywgJy1waHQnLCAnMi4wJywgJy1waCcsICc3LjAnLCAnLXRuJywgJzgnLCAnLW1hJywgJzIwMCcsICctaW1hZScsICc8aW5maWxlLm1hZT4nLCAnLW9tYWUnLCAnPG91dGZpbGUubWFlPic=

>  <r_epik_Ionization_Penalty>  (126) 
0.0127937

>  <r_epik_Ionization_Penalty_Charging>  (126) 
0

>  <r_epik_Ionization_Penalty_Neutral>  (126) 
0.0127937

>  <r_epik_State_Penalty>  (126) 
0.00930472

>  <r_epik_Charging_Adjusted_Penalty>  (126) 
0.00930472

>  <i_epik_Tot_Q>  (126) 
0

>  <i_epik_Tot_abs_Q>  (126) 
0

>  <s_lp_Force_Field>  (126) 
OPLS3e

>  <r_lp_Energy>  (126) 
33.2589

>  <b_lp_Chiralities_Consistent>  (126) 
1

>  <s_lp_Variant>  (126) 
41:0-1

>  <s_i_glide_gridfile>  (126) 
pfpi4k_grid

>  <i_i_glide_lignum>  (126) 
5

>  <i_i_glide_rotatable_bonds>  (126) 
6

>  <r_i_docking_score>  (126) 
-2.2345

>  <r_i_glide_ligand_efficiency>  (126) 
-0.0893799

>  <r_i_glide_ligand_efficiency_sa>  (126) 
-0.261348

>  <r_i_glide_ligand_efficiency_ln>  (126) 
-0.529643

>  <r_i_glide_gscore>  (126) 
-2.2345

>  <r_i_glide_lipo>  (126) 
-0.281798

>  <r_i_glide_hbond>  (126) 
-0.190355

>  <r_i_glide_metal>  (126) 
-0

>  <r_i_glide_rewards>  (126) 
-1.08306

>  <r_i_glide_evdw>  (126) 
-29.545

>  <r_i_glide_ecoul>  (126) 
-0.58097

>  <r_i_glide_erotb>  (126) 
0.975432

>  <r_i_glide_esite>  (126) 
-0.0903269

>  <r_i_glide_emodel>  (126) 
-34.5859

>  <r_i_glide_energy>  (126) 
-30.1259

>  <r_i_glide_einternal>  (126) 
0.993127

>  <r_i_glide_intrahb_reward>  (126) 
-0

>  <i_i_glide_confnum>  (126) 
9

>  <i_i_glide_posenum>  (126) 
39

>  <r_i_glide_eff_state_penalty>  (126) 
0

>  <ligand_id>  (126) 
41

>  <original_smiles>  (126) 
N=c1[nH]c(=NC2CCN(C(=O)C3CC3)C2)[nH]c2c1ncn2CC1CC1

>  <smiles>  (126) 
[H]c1nc2c(N([H])[H])nc(N([H])C3([H])C([H])([H])N(C(=O)C4([H])C([H])([H])C4([H])[H])C([H])([H])C3([H])[H])nc2n1C([H])([H])C1([H])C([H])([H])C1([H])[H]

$$$$
42:0:0
     RDKit          3D

 88 95  0  0  1  0  0  0  0  0999 V2000
   -0.9659    0.4061    4.1775 C   0  0  0  0  0  0  0  0  0  0  0  0
   -0.6485   -0.0472    5.5993 C   0  0  0  0  0  0  0  0  0  0  0  0
   -1.5074    0.1239    6.4647 O   0  0  0  0  0  0  0  0  0  0  0  0
    0.7411   -0.6648    5.8623 C   0  0  2  0  0  0  0  0  0  0  0  0
    1.8458    0.3452    5.4530 C   0  0  0  0  0  0  0  0  0  0  0  0
    3.2829   -0.1896    5.2404 C   0  0  0  0  0  0  0  0  0  0  0  0
    3.4907   -1.7315    5.1661 C   0  0  1  0  0  0  0  0  0  0  0  0
    4.2289   -2.3316    6.4279 C   0  0  1  0  0  0  0  0  0  0  0  0
    5.6945   -1.8080    6.4679 C   0  0  0  0  0  0  0  0  0  0  0  0
    5.9839   -0.7020    6.9282 O   0  0  0  0  0  0  0  0  0  0  0  0
    3.5491   -1.8199    7.7151 C   0  0  0  0  0  0  0  0  0  0  0  0
    2.3952   -2.7668    7.9536 C   0  0  2  0  0  0  0  0  0  0  0  0
    3.1065   -4.1408    7.8015 C   0  0  0  0  0  0  0  0  0  0  0  0
    3.7857   -4.5550    9.1352 C   0  0  0  0  0  0  0  0  0  0  0  0
    2.1208   -5.2770    7.6694 C   0  0  0  0  0  0  0  0  0  0  0  0
    4.2318   -3.8992    6.6967 C   0  0  1  0  0  0  0  0  0  0  0  0
    4.6245   -5.0176    5.6314 C   0  0  0  0  0  0  0  0  0  0  0  0
    5.3231   -4.7012    4.2614 C   0  0  0  0  0  0  0  0  0  0  0  0
    4.4482   -4.8213    2.9619 C   0  0  0  0  0  0  0  0  0  0  0  0
    3.2551   -3.8915    3.0239 C   0  0  0  0  0  0  0  0  0  0  0  0
    2.4545   -3.8410    4.0883 C   0  0  0  0  0  0  0  0  0  0  0  0
    1.7153   -4.9250    4.5614 O   0  0  0  0  0  0  0  0  0  0  0  0
    1.2728   -5.9011    3.6256 C   0  0  0  0  0  0  0  0  0  0  0  0
    1.0378   -5.6639    2.4523 O   0  0  0  0  0  0  0  0  0  0  0  0
    1.1422   -7.1684    4.2640 N   0  0  0  0  0  0  0  0  0  0  0  0
    1.4343   -7.3661    5.6621 C   0  0  0  0  0  0  0  0  0  0  0  0
    2.2980   -8.6047    5.9470 C   0  0  0  0  0  0  0  0  0  0  0  0
    1.7374   -9.8492    5.3475 N   0  0  0  0  0  0  0  0  0  0  0  0
    2.7517  -10.9232    5.5354 C   0  0  0  0  0  0  0  0  0  0  0  0
    0.5019  -10.2030    6.0947 C   0  0  0  0  0  0  0  0  0  0  0  0
    1.4685   -9.6177    3.8795 C   0  0  1  0  0  0  0  0  0  0  0  0
    0.7945  -10.8153    3.2218 C   0  0  0  0  0  0  0  0  0  0  0  0
    0.6207   -8.3483    3.5718 C   0  0  0  0  0  0  0  0  0  0  0  0
    2.1925   -2.4051    4.5472 C   0  0  2  0  0  0  0  0  0  0  0  0
    2.0350   -1.8191    3.0974 C   0  0  0  0  0  0  0  0  0  0  0  0
    3.1324   -2.5976    2.3487 C   0  0  0  0  0  0  0  0  0  0  0  0
    3.7456   -2.1855    1.3636 O   0  0  0  0  0  0  0  0  0  0  0  0
    1.0081   -2.1517    5.5234 C   0  0  2  0  0  0  0  0  0  0  0  0
   -0.2405   -2.9455    5.2564 C   0  0  0  0  0  0  0  0  0  0  0  0
   -0.6940   -3.5123    6.3660 C   0  0  0  0  0  0  0  0  0  0  0  0
    0.0423   -3.2045    7.4641 O   0  0  0  0  0  0  0  0  0  0  0  0
    1.1441   -2.3809    7.0742 C   0  0  1  0  0  0  0  0  0  0  0  0
    0.8576   -0.9719    7.3014 O   0  0  0  0  0  0  0  0  0  0  0  0
   -0.6969   -0.3431    3.4458 H   0  0  0  0  0  0  0  0  0  0  0  0
   -0.4557    1.3266    3.9272 H   0  0  0  0  0  0  0  0  0  0  0  0
   -2.0192    0.6122    4.0744 H   0  0  0  0  0  0  0  0  0  0  0  0
    1.5866    0.7557    4.4905 H   0  0  0  0  0  0  0  0  0  0  0  0
    1.8464    1.2099    6.1130 H   0  0  0  0  0  0  0  0  0  0  0  0
    3.6681    0.2425    4.3159 H   0  0  0  0  0  0  0  0  0  0  0  0
    3.9126    0.2766    5.9836 H   0  0  0  0  0  0  0  0  0  0  0  0
    4.2808   -1.8166    4.4401 H   0  0  0  0  0  0  0  0  0  0  0  0
    6.4691   -2.4712    6.0721 H   0  0  0  0  0  0  0  0  0  0  0  0
    4.2159   -1.8863    8.5759 H   0  0  0  0  0  0  0  0  0  0  0  0
    3.2201   -0.7868    7.7139 H   0  0  0  0  0  0  0  0  0  0  0  0
    2.0632   -2.6887    8.9877 H   0  0  0  0  0  0  0  0  0  0  0  0
    4.2913   -5.5247    9.0547 H   0  0  0  0  0  0  0  0  0  0  0  0
    3.0428   -4.6691    9.9322 H   0  0  0  0  0  0  0  0  0  0  0  0
    4.5315   -3.8380    9.4895 H   0  0  0  0  0  0  0  0  0  0  0  0
    2.6854   -6.2074    7.5480 H   0  0  0  0  0  0  0  0  0  0  0  0
    1.4688   -5.1335    6.8181 H   0  0  0  0  0  0  0  0  0  0  0  0
    1.4740   -5.4464    8.5203 H   0  0  0  0  0  0  0  0  0  0  0  0
    5.1520   -4.0179    7.2860 H   0  0  0  0  0  0  0  0  0  0  0  0
    5.2731   -5.7382    6.1348 H   0  0  0  0  0  0  0  0  0  0  0  0
    3.7938   -5.6562    5.3961 H   0  0  0  0  0  0  0  0  0  0  0  0
    5.8102   -3.7316    4.2988 H   0  0  0  0  0  0  0  0  0  0  0  0
    6.1441   -5.4131    4.1323 H   0  0  0  0  0  0  0  0  0  0  0  0
    5.0435   -4.5926    2.0779 H   0  0  0  0  0  0  0  0  0  0  0  0
    4.0636   -5.8339    2.8387 H   0  0  0  0  0  0  0  0  0  0  0  0
    2.1675   -6.6696    5.8651 H   0  0  0  0  0  0  0  0  0  0  0  0
    0.5356   -7.3005    6.2992 H   0  0  0  0  0  0  0  0  0  0  0  0
    3.3101   -8.4158    5.5649 H   0  0  0  0  0  0  0  0  0  0  0  0
    2.4342   -8.7094    7.0299 H   0  0  0  0  0  0  0  0  0  0  0  0
    2.3381  -11.8756    5.2495 H   0  0  0  0  0  0  0  0  0  0  0  0
    3.0348  -11.0093    6.5838 H   0  0  0  0  0  0  0  0  0  0  0  0
    3.6371  -10.7180    4.9362 H   0  0  0  0  0  0  0  0  0  0  0  0
    0.1644  -11.1799    5.7966 H   0  0  0  0  0  0  0  0  0  0  0  0
   -0.3096   -9.4986    5.9258 H   0  0  0  0  0  0  0  0  0  0  0  0
    0.6804  -10.2553    7.1672 H   0  0  0  0  0  0  0  0  0  0  0  0
    2.4415   -9.4499    3.4033 H   0  0  0  0  0  0  0  0  0  0  0  0
    0.6601  -10.6490    2.1559 H   0  0  0  0  0  0  0  0  0  0  0  0
   -0.1863  -10.9826    3.6523 H   0  0  0  0  0  0  0  0  0  0  0  0
    1.3624  -11.7306    3.3495 H   0  0  0  0  0  0  0  0  0  0  0  0
   -0.4058   -8.4513    3.9263 H   0  0  0  0  0  0  0  0  0  0  0  0
    0.5919   -8.1642    2.4914 H   0  0  0  0  0  0  0  0  0  0  0  0
    1.0669   -2.1039    2.6629 H   0  0  0  0  0  0  0  0  0  0  0  0
    2.1458   -0.7386    2.9981 H   0  0  0  0  0  0  0  0  0  0  0  0
   -0.6959   -2.9816    4.2842 H   0  0  0  0  0  0  0  0  0  0  0  0
   -1.5582   -4.1388    6.5386 H   0  0  0  0  0  0  0  0  0  0  0  0
  1  2  1  0
  1 44  1  0
  1 45  1  0
  1 46  1  0
  2  3  2  0
  4  2  1  1
  4 38  1  0
  4 43  1  0
  4  5  1  0
  5  6  1  0
  5 47  1  0
  5 48  1  0
  6  7  1  0
  6 49  1  0
  6 50  1  0
  7 34  1  0
  7  8  1  0
  7 51  1  6
  8 16  1  0
  8  9  1  1
  8 11  1  0
  9 10  2  0
  9 52  1  0
 11 12  1  0
 11 53  1  0
 11 54  1  0
 12 42  1  0
 12 13  1  0
 12 55  1  1
 13 14  1  0
 13 15  1  0
 13 16  1  0
 14 56  1  0
 14 57  1  0
 14 58  1  0
 15 59  1  0
 15 60  1  0
 15 61  1  0
 16 17  1  0
 16 62  1  1
 17 18  1  0
 17 63  1  0
 17 64  1  0
 18 19  1  0
 18 65  1  0
 18 66  1  0
 19 20  1  0
 19 67  1  0
 19 68  1  0
 20 36  1  0
 20 21  2  0
 21 22  1  0
 21 34  1  0
 22 23  1  0
 23 24  2  0
 23 25  1  0
 25 33  1  0
 25 26  1  0
 26 27  1  0
 26 69  1  0
 26 70  1  0
 27 28  1  0
 27 71  1  0
 27 72  1  0
 28 29  1  0
 28 30  1  0
 28 31  1  0
 29 73  1  0
 29 74  1  0
 29 75  1  0
 30 76  1  0
 30 77  1  0
 30 78  1  0
 31 32  1  0
 31 33  1  0
 31 79  1  6
 32 80  1  0
 32 81  1  0
 32 82  1  0
 33 83  1  0
 33 84  1  0
 34 35  1  6
 34 38  1  0
 35 36  1  0
 35 85  1  0
 35 86  1  0
 36 37  2  0
 38 42  1  0
 38 39  1  6
 39 40  2  0
 39 87  1  0
 40 41  1  0
 40 88  1  0
 42 41  1  1
 42 43  1  0
M  CHG  1  28   1
M  END
>  <i_m_ct_stereo_status>  (127) 
1

>  <s_m_source_file>  (127) 
/var/tmp/pbs.5083858.sched01/tmpsrgifhn0/551fl8t6n1.sdf

>  <i_m_source_file_index>  (127) 
1

>  <i_lp_mmshare_version>  (127) 
48012

>  <i_f3d_flags>  (127) 
0

>  <s_epik_input>  (127) 
W0NIM11DKD1PKVtDQF0xKE8yKVtDSDJdW0NIMl1bQ0BIXTNbQ0BAXShbQ0hdPU8pKFtDSDJdW0NIXTRbQ0BAXTIoW0NAXTE1W0NAQF0zNjcpT1tDSF09W0NIXTUpW0NAQEhdKEM0KFtDSDNdKVtDSDNdKVtDSDJdW0NIMl1bQ0gyXUMoQyg9TylbQ0gyXTcpPUM2T0MoPU8pTihbQ0gyXVtDQEBIXThbQ0gzXSlbQ0gyXVtDSDJdW04rXTgoW0NIM10pW0NIM10=

>  <s_epik_cmdline>  (127) 
J2VwaWtfcHl0aG9uJywgJy1waHQnLCAnMi4wJywgJy1waCcsICc3LjAnLCAnLXRuJywgJzgnLCAnLW1hJywgJzIwMCcsICctaW1hZScsICc8aW5maWxlLm1hZT4nLCAnLW9tYWUnLCAnPG91dGZpbGUubWFlPic=

>  <r_lp_tautomer_probability>  (127) 
1

>  <r_epik_Ionization_Penalty>  (127) 
1.14832e-10

>  <r_epik_Ionization_Penalty_Charging>  (127) 
0

>  <r_epik_Ionization_Penalty_Neutral>  (127) 
1.14832e-10

>  <r_epik_State_Penalty>  (127) 
-0

>  <r_epik_Charging_Adjusted_Penalty>  (127) 
0

>  <i_epik_Tot_Q>  (127) 
1

>  <i_epik_Tot_abs_Q>  (127) 
1

>  <s_lp_Force_Field>  (127) 
OPLS3e

>  <r_lp_Energy>  (127) 
155.444

>  <b_lp_Chiralities_Consistent>  (127) 
1

>  <s_lp_Variant>  (127) 
42:0-1

>  <s_i_glide_gridfile>  (127) 
pfpi4k_grid

>  <i_i_glide_lignum>  (127) 
1

>  <i_i_glide_rotatable_bonds>  (127) 
5

>  <r_i_docking_score>  (127) 
-3.06106

>  <r_i_glide_ligand_efficiency>  (127) 
-0.0711874

>  <r_i_glide_ligand_efficiency_sa>  (127) 
-0.249398

>  <r_i_glide_ligand_efficiency_ln>  (127) 
-0.642917

>  <r_i_glide_gscore>  (127) 
-3.06106

>  <r_i_glide_lipo>  (127) 
-0.117431

>  <r_i_glide_hbond>  (127) 
-0.190966

>  <r_i_glide_metal>  (127) 
-0

>  <r_i_glide_rewards>  (127) 
-0.0302796

>  <r_i_glide_evdw>  (127) 
-22.1375

>  <r_i_glide_ecoul>  (127) 
-10.4953

>  <r_i_glide_erotb>  (127) 
0.0669408

>  <r_i_glide_esite>  (127) 
-0.108148

>  <r_i_glide_emodel>  (127) 
-36.5342

>  <r_i_glide_energy>  (127) 
-32.6328

>  <r_i_glide_einternal>  (127) 
2.63169

>  <r_i_glide_intrahb_reward>  (127) 
-0

>  <i_i_glide_confnum>  (127) 
1

>  <i_i_glide_posenum>  (127) 
31

>  <r_i_glide_eff_state_penalty>  (127) 
0

>  <ligand_id>  (127) 
42

>  <original_smiles>  (127) 
CC(=O)C12CCC3C4(C=O)CC5C(C)(C)C4CCCC4=C(OC(=O)N6CC[N+](C)(C)C(C)C6)C3(CC4=O)C13C=COC53O2

>  <smiles>  (127) 
[H]C(=O)C12C([H])([H])C3([H])C45OC([H])=C([H])C46C(C(=O)C([H])([H])[H])(O5)C([H])([H])C([H])([H])C1([H])C61C(OC(=O)N4C([H])([H])C([H])([H])[N+](C([H])([H])[H])(C([H])([H])[H])C([H])(C([H])([H])[H])C4([H])[H])=C(C(=O)C1([H])[H])C([H])([H])C([H])([H])C([H])([H])C2([H])C3(C([H])([H])[H])C([H])([H])[H]

$$$$
42:0:1
     RDKit          3D

 88 95  0  0  1  0  0  0  0  0999 V2000
   -1.7438   -9.1507    2.1180 C   0  0  0  0  0  0  0  0  0  0  0  0
   -1.0018   -8.4432    3.2572 C   0  0  0  0  0  0  0  0  0  0  0  0
   -1.6006   -7.5698    3.8730 O   0  0  0  0  0  0  0  0  0  0  0  0
    0.4462   -8.8960    3.5300 C   0  0  2  0  0  0  0  0  0  0  0  0
    0.4032  -10.0667    4.5399 C   0  0  0  0  0  0  0  0  0  0  0  0
    1.7023  -10.4189    5.3078 C   0  0  0  0  0  0  0  0  0  0  0  0
    2.8795   -9.3989    5.2678 C   0  0  1  0  0  0  0  0  0  0  0  0
    4.1164   -9.8977    4.4150 C   0  0  1  0  0  0  0  0  0  0  0  0
    4.7268  -11.1492    5.1034 C   0  0  0  0  0  0  0  0  0  0  0  0
    5.6981  -11.0962    5.8601 O   0  0  0  0  0  0  0  0  0  0  0  0
    3.6229  -10.3890    3.0425 C   0  0  0  0  0  0  0  0  0  0  0  0
    3.5558   -9.1483    2.1844 C   0  0  2  0  0  0  0  0  0  0  0  0
    4.9718   -8.5026    2.4638 C   0  0  0  0  0  0  0  0  0  0  0  0
    6.0259   -9.1483    1.5227 C   0  0  0  0  0  0  0  0  0  0  0  0
    5.0727   -7.0315    2.0743 C   0  0  0  0  0  0  0  0  0  0  0  0
    5.2692   -8.8867    3.9788 C   0  0  1  0  0  0  0  0  0  0  0  0
    6.0150   -7.8441    4.9321 C   0  0  0  0  0  0  0  0  0  0  0  0
    5.9418   -7.9338    6.5025 C   0  0  0  0  0  0  0  0  0  0  0  0
    5.0978   -6.8517    7.2415 C   0  0  0  0  0  0  0  0  0  0  0  0
    3.6610   -6.8801    6.7536 C   0  0  0  0  0  0  0  0  0  0  0  0
    3.3500   -6.8809    5.4556 C   0  0  0  0  0  0  0  0  0  0  0  0
    3.6293   -5.8379    4.5792 O   0  0  0  0  0  0  0  0  0  0  0  0
    3.8655   -4.5349    5.0423 C   0  0  0  0  0  0  0  0  0  0  0  0
    4.0019   -4.2048    6.2116 O   0  0  0  0  0  0  0  0  0  0  0  0
    3.8495   -3.6246    3.9712 N   0  0  0  0  0  0  0  0  0  0  0  0
    3.4822   -3.9729    2.6147 C   0  0  0  0  0  0  0  0  0  0  0  0
    4.4755   -3.3348    1.6395 C   0  0  0  0  0  0  0  0  0  0  0  0
    4.5125   -1.8462    1.7852 N   0  0  0  0  0  0  0  0  0  0  0  0
    5.5893   -1.3379    0.8918 C   0  0  0  0  0  0  0  0  0  0  0  0
    3.2098   -1.2909    1.3213 C   0  0  0  0  0  0  0  0  0  0  0  0
    4.8007   -1.4738    3.2143 C   0  0  1  0  0  0  0  0  0  0  0  0
    4.7451    0.0355    3.4627 C   0  0  0  0  0  0  0  0  0  0  0  0
    3.8870   -2.1798    4.2404 C   0  0  0  0  0  0  0  0  0  0  0  0
    2.2918   -7.9272    5.1255 C   0  0  2  0  0  0  0  0  0  0  0  0
    1.4200   -7.6728    6.4130 C   0  0  0  0  0  0  0  0  0  0  0  0
    2.5195   -7.4379    7.4570 C   0  0  0  0  0  0  0  0  0  0  0  0
    2.3922   -7.6691    8.6777 O   0  0  0  0  0  0  0  0  0  0  0  0
    1.5511   -7.8288    3.7666 C   0  0  2  0  0  0  0  0  0  0  0  0
    1.1353   -6.4529    3.3213 C   0  0  0  0  0  0  0  0  0  0  0  0
    1.4704   -6.2560    2.0513 C   0  0  0  0  0  0  0  0  0  0  0  0
    2.1011   -7.3140    1.4777 O   0  0  0  0  0  0  0  0  0  0  0  0
    2.2001   -8.3709    2.4365 C   0  0  1  0  0  0  0  0  0  0  0  0
    1.0929   -9.3097    2.2911 O   0  0  0  0  0  0  0  0  0  0  0  0
   -1.6144  -10.2253    2.1731 H   0  0  0  0  0  0  0  0  0  0  0  0
   -1.3810   -8.7990    1.1628 H   0  0  0  0  0  0  0  0  0  0  0  0
   -2.8069   -8.9463    2.1656 H   0  0  0  0  0  0  0  0  0  0  0  0
   -0.3049   -9.8036    5.3160 H   0  0  0  0  0  0  0  0  0  0  0  0
   -0.0223  -10.9579    4.0829 H   0  0  0  0  0  0  0  0  0  0  0  0
    1.4325  -10.5625    6.3519 H   0  0  0  0  0  0  0  0  0  0  0  0
    2.0145  -11.4163    5.0222 H   0  0  0  0  0  0  0  0  0  0  0  0
    3.2913   -9.4963    6.2639 H   0  0  0  0  0  0  0  0  0  0  0  0
    4.2538  -12.0999    4.8583 H   0  0  0  0  0  0  0  0  0  0  0  0
    4.3317  -11.0758    2.5861 H   0  0  0  0  0  0  0  0  0  0  0  0
    2.6915  -10.9432    3.0361 H   0  0  0  0  0  0  0  0  0  0  0  0
    3.5181   -9.4444    1.1362 H   0  0  0  0  0  0  0  0  0  0  0  0
    7.0083   -8.7001    1.6986 H   0  0  0  0  0  0  0  0  0  0  0  0
    5.7624   -8.9640    0.4780 H   0  0  0  0  0  0  0  0  0  0  0  0
    6.1123  -10.2297    1.6603 H   0  0  0  0  0  0  0  0  0  0  0  0
    6.0099   -6.5516    2.3598 H   0  0  0  0  0  0  0  0  0  0  0  0
    4.2792   -6.6823    2.6294 H   0  0  0  0  0  0  0  0  0  0  0  0
    4.9125   -6.8660    1.0047 H   0  0  0  0  0  0  0  0  0  0  0  0
    6.1210   -9.5594    3.8607 H   0  0  0  0  0  0  0  0  0  0  0  0
    7.0775   -7.9213    4.6933 H   0  0  0  0  0  0  0  0  0  0  0  0
    5.8177   -6.8145    4.6412 H   0  0  0  0  0  0  0  0  0  0  0  0
    5.6077   -8.9105    6.8353 H   0  0  0  0  0  0  0  0  0  0  0  0
    6.9559   -7.8433    6.8965 H   0  0  0  0  0  0  0  0  0  0  0  0
    5.1191   -6.9930    8.3266 H   0  0  0  0  0  0  0  0  0  0  0  0
    5.5332   -5.8751    7.0486 H   0  0  0  0  0  0  0  0  0  0  0  0
    3.5463   -4.9952    2.4281 H   0  0  0  0  0  0  0  0  0  0  0  0
    2.4373   -3.6829    2.4085 H   0  0  0  0  0  0  0  0  0  0  0  0
    5.4782   -3.7557    1.7925 H   0  0  0  0  0  0  0  0  0  0  0  0
    4.1972   -3.6188    0.6242 H   0  0  0  0  0  0  0  0  0  0  0  0
    5.5724   -0.2546    0.8430 H   0  0  0  0  0  0  0  0  0  0  0  0
    5.4422   -1.6954   -0.1259 H   0  0  0  0  0  0  0  0  0  0  0  0
    6.5703   -1.6579    1.2490 H   0  0  0  0  0  0  0  0  0  0  0  0
    3.2525   -0.2115    1.2550 H   0  0  0  0  0  0  0  0  0  0  0  0
    2.3912   -1.5424    1.9935 H   0  0  0  0  0  0  0  0  0  0  0  0
    2.9539   -1.6517    0.3282 H   0  0  0  0  0  0  0  0  0  0  0  0
    5.8115   -1.8250    3.4403 H   0  0  0  0  0  0  0  0  0  0  0  0
    5.0323    0.2870    4.4801 H   0  0  0  0  0  0  0  0  0  0  0  0
    3.7440    0.4373    3.2910 H   0  0  0  0  0  0  0  0  0  0  0  0
    5.4404    0.5426    2.8035 H   0  0  0  0  0  0  0  0  0  0  0  0
    2.8601   -1.8070    4.1941 H   0  0  0  0  0  0  0  0  0  0  0  0
    4.2417   -1.9669    5.2582 H   0  0  0  0  0  0  0  0  0  0  0  0
    0.8403   -6.7460    6.3124 H   0  0  0  0  0  0  0  0  0  0  0  0
    0.7327   -8.4667    6.6923 H   0  0  0  0  0  0  0  0  0  0  0  0
    0.6269   -5.7451    3.9656 H   0  0  0  0  0  0  0  0  0  0  0  0
    1.3654   -5.3989    1.4144 H   0  0  0  0  0  0  0  0  0  0  0  0
  1  2  1  0
  1 44  1  0
  1 45  1  0
  1 46  1  0
  2  3  2  0
  4  2  1  6
  4 38  1  0
  4 43  1  0
  4  5  1  0
  5  6  1  0
  5 47  1  0
  5 48  1  0
  6  7  1  0
  6 49  1  0
  6 50  1  0
  7 34  1  0
  7  8  1  0
  7 51  1  1
  8 16  1  0
  8  9  1  1
  8 11  1  0
  9 10  2  0
  9 52  1  0
 11 12  1  0
 11 53  1  0
 11 54  1  0
 12 42  1  0
 12 13  1  0
 12 55  1  6
 13 14  1  0
 13 15  1  0
 13 16  1  0
 14 56  1  0
 14 57  1  0
 14 58  1  0
 15 59  1  0
 15 60  1  0
 15 61  1  0
 16 17  1  0
 16 62  1  6
 17 18  1  0
 17 63  1  0
 17 64  1  0
 18 19  1  0
 18 65  1  0
 18 66  1  0
 19 20  1  0
 19 67  1  0
 19 68  1  0
 20 36  1  0
 20 21  2  0
 21 22  1  0
 21 34  1  0
 22 23  1  0
 23 24  2  0
 23 25  1  0
 25 33  1  0
 25 26  1  0
 26 27  1  0
 26 69  1  0
 26 70  1  0
 27 28  1  0
 27 71  1  0
 27 72  1  0
 28 29  1  0
 28 30  1  0
 28 31  1  0
 29 73  1  0
 29 74  1  0
 29 75  1  0
 30 76  1  0
 30 77  1  0
 30 78  1  0
 31 32  1  0
 31 33  1  0
 31 79  1  1
 32 80  1  0
 32 81  1  0
 32 82  1  0
 33 83  1  0
 33 84  1  0
 34 35  1  1
 34 38  1  0
 35 36  1  0
 35 85  1  0
 35 86  1  0
 36 37  2  0
 38 42  1  0
 38 39  1  6
 39 40  2  0
 39 87  1  0
 40 41  1  0
 40 88  1  0
 42 41  1  6
 42 43  1  0
M  CHG  1  28   1
M  END
>  <i_m_ct_stereo_status>  (128) 
1

>  <s_m_source_file>  (128) 
/var/tmp/pbs.5083858.sched01/tmpsrgifhn0/551fl8t6n1.sdf

>  <i_m_source_file_index>  (128) 
1

>  <i_lp_mmshare_version>  (128) 
48012

>  <i_f3d_flags>  (128) 
0

>  <s_epik_input>  (128) 
W0NIM11DKD1PKVtDQF0xKE8yKVtDSDJdW0NIMl1bQ0BIXTNbQ0BAXShbQ0hdPU8pKFtDSDJdW0NIXTRbQ0BAXTIoW0NAXTE1W0NAQF0zNjcpT1tDSF09W0NIXTUpW0NAQEhdKEM0KFtDSDNdKVtDSDNdKVtDSDJdW0NIMl1bQ0gyXUMoQyg9TylbQ0gyXTcpPUM2T0MoPU8pTihbQ0gyXVtDQEBIXThbQ0gzXSlbQ0gyXVtDSDJdW04rXTgoW0NIM10pW0NIM10=

>  <s_epik_cmdline>  (128) 
J2VwaWtfcHl0aG9uJywgJy1waHQnLCAnMi4wJywgJy1waCcsICc3LjAnLCAnLXRuJywgJzgnLCAnLW1hJywgJzIwMCcsICctaW1hZScsICc8aW5maWxlLm1hZT4nLCAnLW9tYWUnLCAnPG91dGZpbGUubWFlPic=

>  <r_lp_tautomer_probability>  (128) 
1

>  <r_epik_Ionization_Penalty>  (128) 
1.14832e-10

>  <r_epik_Ionization_Penalty_Charging>  (128) 
0

>  <r_epik_Ionization_Penalty_Neutral>  (128) 
1.14832e-10

>  <r_epik_State_Penalty>  (128) 
-0

>  <r_epik_Charging_Adjusted_Penalty>  (128) 
0

>  <i_epik_Tot_Q>  (128) 
1

>  <i_epik_Tot_abs_Q>  (128) 
1

>  <s_lp_Force_Field>  (128) 
OPLS3e

>  <r_lp_Energy>  (128) 
155.444

>  <b_lp_Chiralities_Consistent>  (128) 
1

>  <s_lp_Variant>  (128) 
42:0-1

>  <s_i_glide_gridfile>  (128) 
pfpi4k_grid

>  <i_i_glide_lignum>  (128) 
1

>  <i_i_glide_rotatable_bonds>  (128) 
5

>  <r_i_docking_score>  (128) 
-2.65487

>  <r_i_glide_ligand_efficiency>  (128) 
-0.061741

>  <r_i_glide_ligand_efficiency_sa>  (128) 
-0.216303

>  <r_i_glide_ligand_efficiency_ln>  (128) 
-0.557604

>  <r_i_glide_gscore>  (128) 
-2.65487

>  <r_i_glide_lipo>  (128) 
-0.57799

>  <r_i_glide_hbond>  (128) 
0

>  <r_i_glide_metal>  (128) 
-0

>  <r_i_glide_rewards>  (128) 
0

>  <r_i_glide_evdw>  (128) 
-29.2726

>  <r_i_glide_ecoul>  (128) 
-3.97236

>  <r_i_glide_erotb>  (128) 
0.0669408

>  <r_i_glide_esite>  (128) 
-0.0843312

>  <r_i_glide_emodel>  (128) 
-36.2948

>  <r_i_glide_energy>  (128) 
-33.245

>  <r_i_glide_einternal>  (128) 
3.91373

>  <r_i_glide_intrahb_reward>  (128) 
-0

>  <i_i_glide_confnum>  (128) 
2

>  <i_i_glide_posenum>  (128) 
7

>  <r_i_glide_eff_state_penalty>  (128) 
0

>  <ligand_id>  (128) 
42

>  <original_smiles>  (128) 
CC(=O)C12CCC3C4(C=O)CC5C(C)(C)C4CCCC4=C(OC(=O)N6CC[N+](C)(C)C(C)C6)C3(CC4=O)C13C=COC53O2

>  <smiles>  (128) 
[H]C(=O)C12C([H])([H])C3([H])C45OC([H])=C([H])C46C(C(=O)C([H])([H])[H])(O5)C([H])([H])C([H])([H])C1([H])C61C(OC(=O)N4C([H])([H])C([H])([H])[N+](C([H])([H])[H])(C([H])([H])[H])C([H])(C([H])([H])[H])C4([H])[H])=C(C(=O)C1([H])[H])C([H])([H])C([H])([H])C([H])([H])C2([H])C3(C([H])([H])[H])C([H])([H])[H]

$$$$
42:0:2
     RDKit          3D

 88 95  0  0  1  0  0  0  0  0999 V2000
   -0.6680   -9.6887    2.8319 C   0  0  0  0  0  0  0  0  0  0  0  0
    0.6651  -10.2679    3.3186 C   0  0  0  0  0  0  0  0  0  0  0  0
    0.9943  -11.3706    2.8990 O   0  0  0  0  0  0  0  0  0  0  0  0
    1.4832   -9.4481    4.3325 C   0  0  2  0  0  0  0  0  0  0  0  0
    0.8717   -9.6586    5.7344 C   0  0  0  0  0  0  0  0  0  0  0  0
    1.2439   -8.6428    6.8510 C   0  0  0  0  0  0  0  0  0  0  0  0
    1.9914   -7.3413    6.4326 C   0  0  1  0  0  0  0  0  0  0  0  0
    3.5087   -7.2952    6.8728 C   0  0  1  0  0  0  0  0  0  0  0  0
    3.5838   -7.2891    8.4200 C   0  0  0  0  0  0  0  0  0  0  0  0
    3.3889   -6.2871    9.1025 O   0  0  0  0  0  0  0  0  0  0  0  0
    4.2012   -8.5940    6.4398 C   0  0  0  0  0  0  0  0  0  0  0  0
    4.6324   -8.3527    5.0090 C   0  0  2  0  0  0  0  0  0  0  0  0
    5.3338   -6.9451    5.1298 C   0  0  0  0  0  0  0  0  0  0  0  0
    6.8036   -7.1442    5.5900 C   0  0  0  0  0  0  0  0  0  0  0  0
    5.4935   -6.2312    3.7943 C   0  0  0  0  0  0  0  0  0  0  0  0
    4.5044   -6.2050    6.2631 C   0  0  1  0  0  0  0  0  0  0  0  0
    4.2204   -4.6378    6.1396 C   0  0  0  0  0  0  0  0  0  0  0  0
    3.0583   -3.9252    6.9392 C   0  0  0  0  0  0  0  0  0  0  0  0
    1.8177   -3.4247    6.1355 C   0  0  0  0  0  0  0  0  0  0  0  0
    1.1707   -4.5918    5.3770 C   0  0  0  0  0  0  0  0  0  0  0  0
    1.8895   -5.4521    4.6659 C   0  0  0  0  0  0  0  0  0  0  0  0
    2.5905   -5.1110    3.5024 O   0  0  0  0  0  0  0  0  0  0  0  0
    2.3454   -3.9220    2.8228 C   0  0  0  0  0  0  0  0  0  0  0  0
    1.5387   -3.0533    3.1708 O   0  0  0  0  0  0  0  0  0  0  0  0
    3.1223   -3.8307    1.6671 N   0  0  0  0  0  0  0  0  0  0  0  0
    3.7569   -4.9860    1.0270 C   0  0  0  0  0  0  0  0  0  0  0  0
    5.1653   -4.5545    0.5852 C   0  0  0  0  0  0  0  0  0  0  0  0
    5.1380   -3.3909   -0.3582 N   0  0  0  0  0  0  0  0  0  0  0  0
    6.5544   -2.9996   -0.6316 C   0  0  0  0  0  0  0  0  0  0  0  0
    4.5009   -3.8360   -1.6363 C   0  0  0  0  0  0  0  0  0  0  0  0
    4.3984   -2.2325    0.2592 C   0  0  1  0  0  0  0  0  0  0  0  0
    4.2172   -1.0270   -0.6858 C   0  0  0  0  0  0  0  0  0  0  0  0
    3.0140   -2.6311    0.8209 C   0  0  0  0  0  0  0  0  0  0  0  0
    1.5290   -6.9093    4.9686 C   0  0  2  0  0  0  0  0  0  0  0  0
   -0.0253   -6.6697    5.0742 C   0  0  0  0  0  0  0  0  0  0  0  0
   -0.0557   -5.2868    5.7755 C   0  0  0  0  0  0  0  0  0  0  0  0
   -0.9750   -4.9188    6.4977 O   0  0  0  0  0  0  0  0  0  0  0  0
    1.9673   -8.0120    3.9793 C   0  0  2  0  0  0  0  0  0  0  0  0
    1.8494   -7.6980    2.5138 C   0  0  0  0  0  0  0  0  0  0  0  0
    2.9582   -8.0491    1.8716 C   0  0  0  0  0  0  0  0  0  0  0  0
    3.9201   -8.5857    2.6765 O   0  0  0  0  0  0  0  0  0  0  0  0
    3.4204   -8.6189    4.0237 C   0  0  1  0  0  0  0  0  0  0  0  0
    2.8676   -9.9213    4.3425 O   0  0  0  0  0  0  0  0  0  0  0  0
   -0.5886   -8.6508    2.5347 H   0  0  0  0  0  0  0  0  0  0  0  0
   -1.4217   -9.7792    3.6008 H   0  0  0  0  0  0  0  0  0  0  0  0
   -0.9956  -10.2548    1.9714 H   0  0  0  0  0  0  0  0  0  0  0  0
   -0.2026   -9.5812    5.6341 H   0  0  0  0  0  0  0  0  0  0  0  0
    1.0258  -10.6786    6.0782 H   0  0  0  0  0  0  0  0  0  0  0  0
    0.3296   -8.3646    7.3776 H   0  0  0  0  0  0  0  0  0  0  0  0
    1.8058   -9.1766    7.6088 H   0  0  0  0  0  0  0  0  0  0  0  0
    1.5797   -6.6208    7.1237 H   0  0  0  0  0  0  0  0  0  0  0  0
    3.8519   -8.2381    8.8831 H   0  0  0  0  0  0  0  0  0  0  0  0
    5.0962   -8.7735    7.0310 H   0  0  0  0  0  0  0  0  0  0  0  0
    3.6212   -9.5046    6.5549 H   0  0  0  0  0  0  0  0  0  0  0  0
    5.3845   -9.0989    4.7483 H   0  0  0  0  0  0  0  0  0  0  0  0
    7.3071   -6.1760    5.6574 H   0  0  0  0  0  0  0  0  0  0  0  0
    7.3531   -7.7356    4.8508 H   0  0  0  0  0  0  0  0  0  0  0  0
    6.9014   -7.6476    6.5592 H   0  0  0  0  0  0  0  0  0  0  0  0
    5.9023   -5.2268    3.8947 H   0  0  0  0  0  0  0  0  0  0  0  0
    4.5205   -6.2291    3.4575 H   0  0  0  0  0  0  0  0  0  0  0  0
    6.1517   -6.7851    3.1209 H   0  0  0  0  0  0  0  0  0  0  0  0
    5.2391   -6.1236    7.0693 H   0  0  0  0  0  0  0  0  0  0  0  0
    5.1378   -4.1426    6.4662 H   0  0  0  0  0  0  0  0  0  0  0  0
    4.1851   -4.3107    5.1013 H   0  0  0  0  0  0  0  0  0  0  0  0
    2.6937   -4.5255    7.7650 H   0  0  0  0  0  0  0  0  0  0  0  0
    3.4797   -3.0280    7.4034 H   0  0  0  0  0  0  0  0  0  0  0  0
    1.0669   -2.9631    6.7924 H   0  0  0  0  0  0  0  0  0  0  0  0
    2.1797   -2.6519    5.4625 H   0  0  0  0  0  0  0  0  0  0  0  0
    3.8724   -5.8142    1.6694 H   0  0  0  0  0  0  0  0  0  0  0  0
    3.1328   -5.3252    0.1785 H   0  0  0  0  0  0  0  0  0  0  0  0
    5.7762   -4.3084    1.4643 H   0  0  0  0  0  0  0  0  0  0  0  0
    5.6535   -5.4105    0.1237 H   0  0  0  0  0  0  0  0  0  0  0  0
    6.6183   -2.2592   -1.4259 H   0  0  0  0  0  0  0  0  0  0  0  0
    7.1340   -3.8564   -0.9708 H   0  0  0  0  0  0  0  0  0  0  0  0
    7.0397   -2.5863    0.2593 H   0  0  0  0  0  0  0  0  0  0  0  0
    4.5938   -3.0888   -2.4167 H   0  0  0  0  0  0  0  0  0  0  0  0
    3.4331   -4.0401   -1.5324 H   0  0  0  0  0  0  0  0  0  0  0  0
    4.9707   -4.7379   -2.0214 H   0  0  0  0  0  0  0  0  0  0  0  0
    4.9638   -1.8974    1.1367 H   0  0  0  0  0  0  0  0  0  0  0  0
    3.7365   -0.2147   -0.1554 H   0  0  0  0  0  0  0  0  0  0  0  0
    3.5763   -1.2739   -1.5360 H   0  0  0  0  0  0  0  0  0  0  0  0
    5.1640   -0.6498   -1.0661 H   0  0  0  0  0  0  0  0  0  0  0  0
    2.2832   -2.8486    0.0392 H   0  0  0  0  0  0  0  0  0  0  0  0
    2.5910   -1.7808    1.3762 H   0  0  0  0  0  0  0  0  0  0  0  0
   -0.4698   -6.5385    4.0814 H   0  0  0  0  0  0  0  0  0  0  0  0
   -0.6134   -7.4175    5.5911 H   0  0  0  0  0  0  0  0  0  0  0  0
    0.9775   -7.2615    2.0297 H   0  0  0  0  0  0  0  0  0  0  0  0
    3.2257   -7.9512    0.8412 H   0  0  0  0  0  0  0  0  0  0  0  0
  1  2  1  0
  1 44  1  0
  1 45  1  0
  1 46  1  0
  2  3  2  0
  4  2  1  6
  4 38  1  0
  4 43  1  0
  4  5  1  0
  5  6  1  0
  5 47  1  0
  5 48  1  0
  6  7  1  0
  6 49  1  0
  6 50  1  0
  7 34  1  0
  7  8  1  0
  7 51  1  1
  8 16  1  0
  8  9  1  1
  8 11  1  0
  9 10  2  0
  9 52  1  0
 11 12  1  0
 11 53  1  0
 11 54  1  0
 12 42  1  0
 12 13  1  0
 12 55  1  6
 13 14  1  0
 13 15  1  0
 13 16  1  0
 14 56  1  0
 14 57  1  0
 14 58  1  0
 15 59  1  0
 15 60  1  0
 15 61  1  0
 16 17  1  0
 16 62  1  1
 17 18  1  0
 17 63  1  0
 17 64  1  0
 18 19  1  0
 18 65  1  0
 18 66  1  0
 19 20  1  0
 19 67  1  0
 19 68  1  0
 20 36  1  0
 20 21  2  0
 21 22  1  0
 21 34  1  0
 22 23  1  0
 23 24  2  0
 23 25  1  0
 25 33  1  0
 25 26  1  0
 26 27  1  0
 26 69  1  0
 26 70  1  0
 27 28  1  0
 27 71  1  0
 27 72  1  0
 28 29  1  0
 28 30  1  0
 28 31  1  0
 29 73  1  0
 29 74  1  0
 29 75  1  0
 30 76  1  0
 30 77  1  0
 30 78  1  0
 31 32  1  0
 31 33  1  0
 31 79  1  1
 32 80  1  0
 32 81  1  0
 32 82  1  0
 33 83  1  0
 33 84  1  0
 34 35  1  1
 34 38  1  0
 35 36  1  0
 35 85  1  0
 35 86  1  0
 36 37  2  0
 38 42  1  0
 38 39  1  6
 39 40  2  0
 39 87  1  0
 40 41  1  0
 40 88  1  0
 42 41  1  6
 42 43  1  0
M  CHG  1  28   1
M  END
>  <i_m_ct_stereo_status>  (129) 
1

>  <s_m_source_file>  (129) 
/var/tmp/pbs.5083858.sched01/tmpsrgifhn0/551fl8t6n1.sdf

>  <i_m_source_file_index>  (129) 
1

>  <i_lp_mmshare_version>  (129) 
48012

>  <i_f3d_flags>  (129) 
0

>  <s_epik_input>  (129) 
W0NIM11DKD1PKVtDQF0xKE8yKVtDSDJdW0NIMl1bQ0BIXTNbQ0BAXShbQ0hdPU8pKFtDSDJdW0NIXTRbQ0BAXTIoW0NAXTE1W0NAQF0zNjcpT1tDSF09W0NIXTUpW0NAQEhdKEM0KFtDSDNdKVtDSDNdKVtDSDJdW0NIMl1bQ0gyXUMoQyg9TylbQ0gyXTcpPUM2T0MoPU8pTihbQ0gyXVtDQEBIXThbQ0gzXSlbQ0gyXVtDSDJdW04rXTgoW0NIM10pW0NIM10=

>  <s_epik_cmdline>  (129) 
J2VwaWtfcHl0aG9uJywgJy1waHQnLCAnMi4wJywgJy1waCcsICc3LjAnLCAnLXRuJywgJzgnLCAnLW1hJywgJzIwMCcsICctaW1hZScsICc8aW5maWxlLm1hZT4nLCAnLW9tYWUnLCAnPG91dGZpbGUubWFlPic=

>  <r_lp_tautomer_probability>  (129) 
1

>  <r_epik_Ionization_Penalty>  (129) 
1.14832e-10

>  <r_epik_Ionization_Penalty_Charging>  (129) 
0

>  <r_epik_Ionization_Penalty_Neutral>  (129) 
1.14832e-10

>  <r_epik_State_Penalty>  (129) 
-0

>  <r_epik_Charging_Adjusted_Penalty>  (129) 
0

>  <i_epik_Tot_Q>  (129) 
1

>  <i_epik_Tot_abs_Q>  (129) 
1

>  <s_lp_Force_Field>  (129) 
OPLS3e

>  <r_lp_Energy>  (129) 
155.444

>  <b_lp_Chiralities_Consistent>  (129) 
1

>  <s_lp_Variant>  (129) 
42:0-1

>  <s_i_glide_gridfile>  (129) 
pfpi4k_grid

>  <i_i_glide_lignum>  (129) 
1

>  <i_i_glide_rotatable_bonds>  (129) 
5

>  <r_i_docking_score>  (129) 
-1.71901

>  <r_i_glide_ligand_efficiency>  (129) 
-0.039977

>  <r_i_glide_ligand_efficiency_sa>  (129) 
-0.140055

>  <r_i_glide_ligand_efficiency_ln>  (129) 
-0.361045

>  <r_i_glide_gscore>  (129) 
-1.71901

>  <r_i_glide_lipo>  (129) 
-0.10732

>  <r_i_glide_hbond>  (129) 
0

>  <r_i_glide_metal>  (129) 
-0

>  <r_i_glide_rewards>  (129) 
-0.0298844

>  <r_i_glide_evdw>  (129) 
-28.3091

>  <r_i_glide_ecoul>  (129) 
-1.50638

>  <r_i_glide_erotb>  (129) 
0.0669408

>  <r_i_glide_esite>  (129) 
-0.00733155

>  <r_i_glide_emodel>  (129) 
-32.2974

>  <r_i_glide_energy>  (129) 
-29.8155

>  <r_i_glide_einternal>  (129) 
1.61549

>  <r_i_glide_intrahb_reward>  (129) 
-0

>  <i_i_glide_confnum>  (129) 
2

>  <i_i_glide_posenum>  (129) 
16

>  <r_i_glide_eff_state_penalty>  (129) 
0

>  <ligand_id>  (129) 
42

>  <original_smiles>  (129) 
CC(=O)C12CCC3C4(C=O)CC5C(C)(C)C4CCCC4=C(OC(=O)N6CC[N+](C)(C)C(C)C6)C3(CC4=O)C13C=COC53O2

>  <smiles>  (129) 
[H]C(=O)C12C([H])([H])C3([H])C45OC([H])=C([H])C46C(C(=O)C([H])([H])[H])(O5)C([H])([H])C([H])([H])C1([H])C61C(OC(=O)N4C([H])([H])C([H])([H])[N+](C([H])([H])[H])(C([H])([H])[H])C([H])(C([H])([H])[H])C4([H])[H])=C(C(=O)C1([H])[H])C([H])([H])C([H])([H])C([H])([H])C2([H])C3(C([H])([H])[H])C([H])([H])[H]

$$$$
44:0:0
     RDKit          3D

 60 64  0  0  1  0  0  0  0  0999 V2000
   -0.4157   -6.3126    5.2741 C   0  0  0  0  0  0  0  0  0  0  0  0
   -0.1070   -6.4486    3.7921 C   0  0  0  0  0  0  0  0  0  0  0  0
   -0.8696   -7.0550    3.0512 O   0  0  0  0  0  0  0  0  0  0  0  0
    1.0419   -5.8529    3.3561 O   0  0  0  0  0  0  0  0  0  0  0  0
    1.6933   -4.9560    4.1984 C   0  0  2  0  0  0  0  0  0  0  0  0
    1.5929   -3.6539    3.6952 O   0  0  0  0  0  0  0  0  0  0  0  0
    2.8647   -3.0971    3.6754 C   0  0  2  0  0  0  0  0  0  0  0  0
    2.9881   -2.0080    2.8381 O   0  0  0  0  0  0  0  0  0  0  0  0
    4.3710   -1.7231    2.5974 C   0  0  1  0  0  0  0  0  0  0  0  0
    4.5514   -0.2373    2.9009 C   0  0  0  0  0  0  0  0  0  0  0  0
    5.2595   -2.3451    3.5476 O   0  0  0  0  0  0  0  0  0  0  0  0
    5.1271   -3.8503    3.5388 O   0  0  0  0  0  0  0  0  0  0  0  0
    3.7959   -4.2305    3.2377 C   0  0  1  0  0  0  0  0  0  0  0  0
    3.2114   -5.3109    4.1848 C   0  0  1  0  0  0  0  0  0  0  0  0
    3.6979   -5.2973    5.6354 C   0  0  0  0  0  0  0  0  0  0  0  0
    3.6424   -4.4857    1.6955 C   0  0  2  0  0  0  0  0  0  0  0  0
    3.7317   -5.9840    1.2702 C   0  0  0  0  0  0  0  0  0  0  0  0
    5.1581   -6.4972    1.2090 C   0  0  0  0  0  0  0  0  0  0  0  0
    5.8630   -5.7120    0.1193 C   0  0  0  0  0  0  0  0  0  0  0  0
    5.9255   -4.2037    0.3864 C   0  0  1  0  0  0  0  0  0  0  0  0
    7.0655   -3.9990    1.3957 C   0  0  0  0  0  0  0  0  0  0  0  0
    6.5060   -3.5957   -0.7518 O   0  0  0  0  0  0  0  0  0  0  0  0
    4.4858   -3.5820    0.6699 C   0  0  1  0  0  0  0  0  0  0  0  0
    3.7236   -3.4582   -0.7277 C   0  0  1  0  0  0  0  0  0  0  0  0
    2.2159   -3.7451   -0.7815 C   0  0  0  0  0  0  0  0  0  0  0  0
    3.8983   -2.0061   -1.1816 C   0  0  0  0  0  0  0  0  0  0  0  0
    3.8578   -1.2192    0.1173 C   0  0  0  0  0  0  0  0  0  0  0  0
    4.6566   -2.0786    1.1158 C   0  0  1  0  0  0  0  0  0  0  0  0
   -0.4053   -5.2526    5.5502 H   0  0  0  0  0  0  0  0  0  0  0  0
    0.3444   -6.8097    5.8745 H   0  0  0  0  0  0  0  0  0  0  0  0
   -1.3777   -6.7626    5.5233 H   0  0  0  0  0  0  0  0  0  0  0  0
    1.2699   -4.9330    5.2083 H   0  0  0  0  0  0  0  0  0  0  0  0
    3.0690   -2.7456    4.6907 H   0  0  0  0  0  0  0  0  0  0  0  0
    4.3819   -0.0634    3.9583 H   0  0  0  0  0  0  0  0  0  0  0  0
    3.8461    0.3857    2.3513 H   0  0  0  0  0  0  0  0  0  0  0  0
    5.5636    0.0838    2.6689 H   0  0  0  0  0  0  0  0  0  0  0  0
    3.3985   -6.3301    3.8331 H   0  0  0  0  0  0  0  0  0  0  0  0
    3.4971   -4.3506    6.1412 H   0  0  0  0  0  0  0  0  0  0  0  0
    4.7570   -5.5168    5.7303 H   0  0  0  0  0  0  0  0  0  0  0  0
    3.1544   -6.0536    6.1957 H   0  0  0  0  0  0  0  0  0  0  0  0
    2.5918   -4.2579    1.5529 H   0  0  0  0  0  0  0  0  0  0  0  0
    3.1177   -6.6514    1.8694 H   0  0  0  0  0  0  0  0  0  0  0  0
    3.3155   -6.1167    0.2746 H   0  0  0  0  0  0  0  0  0  0  0  0
    5.6643   -6.4171    2.1733 H   0  0  0  0  0  0  0  0  0  0  0  0
    5.1558   -7.5576    0.9448 H   0  0  0  0  0  0  0  0  0  0  0  0
    6.8712   -6.1121    0.0331 H   0  0  0  0  0  0  0  0  0  0  0  0
    5.3315   -5.8971   -0.8168 H   0  0  0  0  0  0  0  0  0  0  0  0
    6.9364   -4.5924    2.2952 H   0  0  0  0  0  0  0  0  0  0  0  0
    7.2024   -2.9604    1.6800 H   0  0  0  0  0  0  0  0  0  0  0  0
    8.0191   -4.3230    0.9726 H   0  0  0  0  0  0  0  0  0  0  0  0
    5.9524   -3.7994   -1.5053 H   0  0  0  0  0  0  0  0  0  0  0  0
    4.1508   -4.1323   -1.4727 H   0  0  0  0  0  0  0  0  0  0  0  0
    1.7196   -3.0650   -0.1001 H   0  0  0  0  0  0  0  0  0  0  0  0
    1.9421   -4.7718   -0.5567 H   0  0  0  0  0  0  0  0  0  0  0  0
    1.8215   -3.5451   -1.7742 H   0  0  0  0  0  0  0  0  0  0  0  0
    4.8601   -1.8651   -1.6690 H   0  0  0  0  0  0  0  0  0  0  0  0
    3.1318   -1.6803   -1.8852 H   0  0  0  0  0  0  0  0  0  0  0  0
    4.2739   -0.2204   -0.0065 H   0  0  0  0  0  0  0  0  0  0  0  0
    2.8224   -1.0987    0.4417 H   0  0  0  0  0  0  0  0  0  0  0  0
    5.6781   -1.7652    0.9193 H   0  0  0  0  0  0  0  0  0  0  0  0
  1  2  1  0
  1 29  1  0
  1 30  1  0
  1 31  1  0
  2  3  2  0
  2  4  1  0
  4  5  1  0
  5 14  1  0
  5  6  1  0
  5 32  1  1
  6  7  1  0
  7 13  1  0
  7  8  1  0
  7 33  1  1
  8  9  1  0
  9 28  1  0
  9 10  1  6
  9 11  1  0
 10 34  1  0
 10 35  1  0
 10 36  1  0
 11 12  1  0
 13 12  1  6
 13 14  1  0
 13 16  1  0
 14 15  1  0
 14 37  1  6
 15 38  1  0
 15 39  1  0
 15 40  1  0
 16 23  1  0
 16 17  1  0
 16 41  1  6
 17 18  1  0
 17 42  1  0
 17 43  1  0
 18 19  1  0
 18 44  1  0
 18 45  1  0
 19 20  1  0
 19 46  1  0
 19 47  1  0
 20 21  1  0
 20 22  1  6
 23 20  1  6
 21 48  1  0
 21 49  1  0
 21 50  1  0
 22 51  1  0
 23 28  1  0
 23 24  1  0
 24 25  1  0
 24 26  1  0
 24 52  1  6
 25 53  1  0
 25 54  1  0
 25 55  1  0
 26 27  1  0
 26 56  1  0
 26 57  1  0
 27 28  1  0
 27 58  1  0
 27 59  1  0
 28 60  1  6
M  END
>  <i_m_ct_stereo_status>  (130) 
1

>  <s_m_source_file>  (130) 
/var/tmp/pbs.5083858.sched01/tmpsrgifhn0/551fl8t6n1.sdf

>  <i_m_source_file_index>  (130) 
3

>  <i_lp_mmshare_version>  (130) 
48012

>  <i_f3d_flags>  (130) 
0

>  <s_epik_input>  (130) 
W0NIM11DKD1PKU9bQ0BASF0oW0NAQEhdMVtDSDNdKU9bQ0BASF0oW0NAXTEyMylPW0NAQF0oW0NIM10pKE9PMilbQ0BIXTRbQ0BdNShbQ0BASF0oW0NIM10pW0NIMl1bQ0gyXTQpW0NASF0zW0NIMl1bQ0gyXVtDSDJdW0NAQF01KFtDSDNdKVtPSF0=

>  <s_epik_cmdline>  (130) 
J2VwaWtfcHl0aG9uJywgJy1waHQnLCAnMi4wJywgJy1waCcsICc3LjAnLCAnLXRuJywgJzgnLCAnLW1hJywgJzIwMCcsICctaW1hZScsICc8aW5maWxlLm1hZT4nLCAnLW9tYWUnLCAnPG91dGZpbGUubWFlPic=

>  <r_lp_tautomer_probability>  (130) 
1

>  <r_epik_Ionization_Penalty>  (130) 
2.38332e-07

>  <r_epik_Ionization_Penalty_Charging>  (130) 
0

>  <r_epik_Ionization_Penalty_Neutral>  (130) 
2.38332e-07

>  <r_epik_State_Penalty>  (130) 
-0

>  <r_epik_Charging_Adjusted_Penalty>  (130) 
0

>  <i_epik_Tot_Q>  (130) 
0

>  <i_epik_Tot_abs_Q>  (130) 
0

>  <s_epik_Chemistry_Notes>  (130) 
This compound has an ester and may undergo hydrolysis at high or low pH. This compound contains an acetal/aminal-like group ( X-CH(R)-Y where X, Y are N, S, or O) that may be acid/base labile, releasing an aldehyde.

>  <s_lp_Force_Field>  (130) 
OPLS3e

>  <r_lp_Energy>  (130) 
66.6598

>  <b_lp_Chiralities_Consistent>  (130) 
1

>  <s_lp_Variant>  (130) 
44:0-1

>  <s_i_glide_gridfile>  (130) 
pfpi4k_grid

>  <i_i_glide_lignum>  (130) 
3

>  <i_i_glide_rotatable_bonds>  (130) 
3

>  <r_i_docking_score>  (130) 
-2.48882

>  <r_i_glide_ligand_efficiency>  (130) 
-0.0888865

>  <r_i_glide_ligand_efficiency_sa>  (130) 
-0.269912

>  <r_i_glide_ligand_efficiency_ln>  (130) 
-0.574493

>  <r_i_glide_gscore>  (130) 
-2.48882

>  <r_i_glide_lipo>  (130) 
-0.54206

>  <r_i_glide_hbond>  (130) 
-0.147919

>  <r_i_glide_metal>  (130) 
-0

>  <r_i_glide_rewards>  (130) 
-0.738515

>  <r_i_glide_evdw>  (130) 
-20.3305

>  <r_i_glide_ecoul>  (130) 
-0.710724

>  <r_i_glide_erotb>  (130) 
0.124467

>  <r_i_glide_esite>  (130) 
-0.0616614

>  <r_i_glide_emodel>  (130) 
-18.6514

>  <r_i_glide_energy>  (130) 
-21.0412

>  <r_i_glide_einternal>  (130) 
9.70327

>  <r_i_glide_intrahb_reward>  (130) 
-0

>  <i_i_glide_confnum>  (130) 
6

>  <i_i_glide_posenum>  (130) 
21

>  <r_i_glide_eff_state_penalty>  (130) 
0

>  <ligand_id>  (130) 
44

>  <original_smiles>  (130) 
CC(=O)OC1OC2OC3(C)OOC2(C1C)C1CCCC(C)(O)C12C(C)CCC32

>  <smiles>  (130) 
[H]OC1(C([H])([H])[H])C([H])([H])C([H])([H])C([H])([H])C2([H])C34OOC(C([H])([H])[H])(OC3([H])OC([H])(OC(=O)C([H])([H])[H])C4([H])C([H])([H])[H])C3([H])C([H])([H])C([H])([H])C([H])(C([H])([H])[H])C321

$$$$
44:0:1
     RDKit          3D

 60 64  0  0  1  0  0  0  0  0999 V2000
   -0.1723   -6.9096    3.7253 C   0  0  0  0  0  0  0  0  0  0  0  0
    0.5899   -6.6312    2.4272 C   0  0  0  0  0  0  0  0  0  0  0  0
    0.0022   -6.7217    1.3334 O   0  0  0  0  0  0  0  0  0  0  0  0
    1.9053   -6.3240    2.5082 O   0  0  0  0  0  0  0  0  0  0  0  0
    2.2957   -5.5320    3.5985 C   0  0  2  0  0  0  0  0  0  0  0  0
    1.7982   -4.2282    3.4684 O   0  0  0  0  0  0  0  0  0  0  0  0
    2.8564   -3.3473    3.5440 C   0  0  2  0  0  0  0  0  0  0  0  0
    2.6653   -2.1316    2.9160 O   0  0  0  0  0  0  0  0  0  0  0  0
    3.9048   -1.4277    2.7947 C   0  0  1  0  0  0  0  0  0  0  0  0
    3.6515   -0.0251    3.3730 C   0  0  0  0  0  0  0  0  0  0  0  0
    4.9429   -1.9454    3.6466 O   0  0  0  0  0  0  0  0  0  0  0  0
    5.2334   -3.4094    3.3681 O   0  0  0  0  0  0  0  0  0  0  0  0
    4.0674   -4.0617    2.9295 C   0  0  1  0  0  0  0  0  0  0  0  0
    3.8389   -5.4246    3.6009 C   0  0  1  0  0  0  0  0  0  0  0  0
    4.3119   -5.5537    5.0675 C   0  0  0  0  0  0  0  0  0  0  0  0
    3.9795   -4.0507    1.3494 C   0  0  2  0  0  0  0  0  0  0  0  0
    4.5074   -5.3421    0.6549 C   0  0  0  0  0  0  0  0  0  0  0  0
    6.0192   -5.3841    0.5649 C   0  0  0  0  0  0  0  0  0  0  0  0
    6.4681   -4.2280   -0.3278 C   0  0  0  0  0  0  0  0  0  0  0  0
    6.0462   -2.8633    0.1817 C   0  0  1  0  0  0  0  0  0  0  0  0
    7.0204   -2.5354    1.2746 C   0  0  0  0  0  0  0  0  0  0  0  0
    6.4346   -1.9344   -0.8288 O   0  0  0  0  0  0  0  0  0  0  0  0
    4.5056   -2.7721    0.5541 C   0  0  1  0  0  0  0  0  0  0  0  0
    3.7331   -2.6270   -0.8232 C   0  0  1  0  0  0  0  0  0  0  0  0
    2.3683   -3.3375   -1.0078 C   0  0  0  0  0  0  0  0  0  0  0  0
    3.5160   -1.1192   -0.9692 C   0  0  0  0  0  0  0  0  0  0  0  0
    3.2744   -0.6503    0.4641 C   0  0  0  0  0  0  0  0  0  0  0  0
    4.2830   -1.4041    1.2949 C   0  0  1  0  0  0  0  0  0  0  0  0
   -0.1459   -6.0667    4.4154 H   0  0  0  0  0  0  0  0  0  0  0  0
    0.2407   -7.7866    4.2259 H   0  0  0  0  0  0  0  0  0  0  0  0
   -1.2249   -7.1135    3.5332 H   0  0  0  0  0  0  0  0  0  0  0  0
    1.9692   -5.9608    4.5517 H   0  0  0  0  0  0  0  0  0  0  0  0
    2.9939   -3.1428    4.6046 H   0  0  0  0  0  0  0  0  0  0  0  0
    3.4535   -0.1042    4.4424 H   0  0  0  0  0  0  0  0  0  0  0  0
    2.7900    0.4660    2.9199 H   0  0  0  0  0  0  0  0  0  0  0  0
    4.5225    0.6158    3.2481 H   0  0  0  0  0  0  0  0  0  0  0  0
    4.2941   -6.2669    3.0990 H   0  0  0  0  0  0  0  0  0  0  0  0
    3.8618   -4.8169    5.7401 H   0  0  0  0  0  0  0  0  0  0  0  0
    5.3977   -5.4762    5.1527 H   0  0  0  0  0  0  0  0  0  0  0  0
    4.0282   -6.5353    5.4645 H   0  0  0  0  0  0  0  0  0  0  0  0
    2.9047   -4.1097    1.2143 H   0  0  0  0  0  0  0  0  0  0  0  0
    4.1156   -6.2601    1.0882 H   0  0  0  0  0  0  0  0  0  0  0  0
    4.1277   -5.3905   -0.3636 H   0  0  0  0  0  0  0  0  0  0  0  0
    6.4786   -5.3755    1.5518 H   0  0  0  0  0  0  0  0  0  0  0  0
    6.3139   -6.3059    0.0936 H   0  0  0  0  0  0  0  0  0  0  0  0
    7.5536   -4.2562   -0.4677 H   0  0  0  0  0  0  0  0  0  0  0  0
    6.0254   -4.3400   -1.3160 H   0  0  0  0  0  0  0  0  0  0  0  0
    7.0376   -3.3214    2.0219 H   0  0  0  0  0  0  0  0  0  0  0  0
    6.9091   -1.5659    1.7564 H   0  0  0  0  0  0  0  0  0  0  0  0
    8.0269   -2.5221    0.8661 H   0  0  0  0  0  0  0  0  0  0  0  0
    5.8893   -2.1091   -1.5797 H   0  0  0  0  0  0  0  0  0  0  0  0
    4.3211   -2.9757   -1.6779 H   0  0  0  0  0  0  0  0  0  0  0  0
    1.6881   -3.0450   -0.2138 H   0  0  0  0  0  0  0  0  0  0  0  0
    2.4038   -4.4251   -1.0184 H   0  0  0  0  0  0  0  0  0  0  0  0
    1.8970   -3.0366   -1.9477 H   0  0  0  0  0  0  0  0  0  0  0  0
    4.3864   -0.6153   -1.3900 H   0  0  0  0  0  0  0  0  0  0  0  0
    2.6914   -0.8820   -1.6474 H   0  0  0  0  0  0  0  0  0  0  0  0
    3.4040    0.4279    0.5526 H   0  0  0  0  0  0  0  0  0  0  0  0
    2.2543   -0.8872    0.7943 H   0  0  0  0  0  0  0  0  0  0  0  0
    5.1537   -0.7672    1.1955 H   0  0  0  0  0  0  0  0  0  0  0  0
  1  2  1  0
  1 29  1  0
  1 30  1  0
  1 31  1  0
  2  3  2  0
  2  4  1  0
  4  5  1  0
  5 14  1  0
  5  6  1  0
  5 32  1  1
  6  7  1  0
  7 13  1  0
  7  8  1  0
  7 33  1  1
  8  9  1  0
  9 28  1  0
  9 10  1  1
  9 11  1  0
 10 34  1  0
 10 35  1  0
 10 36  1  0
 11 12  1  0
 13 12  1  6
 13 14  1  0
 13 16  1  0
 14 15  1  0
 14 37  1  6
 15 38  1  0
 15 39  1  0
 15 40  1  0
 16 23  1  0
 16 17  1  0
 16 41  1  1
 17 18  1  0
 17 42  1  0
 17 43  1  0
 18 19  1  0
 18 44  1  0
 18 45  1  0
 19 20  1  0
 19 46  1  0
 19 47  1  0
 20 21  1  0
 20 22  1  6
 23 20  1  6
 21 48  1  0
 21 49  1  0
 21 50  1  0
 22 51  1  0
 23 28  1  0
 23 24  1  0
 24 25  1  0
 24 26  1  0
 24 52  1  6
 25 53  1  0
 25 54  1  0
 25 55  1  0
 26 27  1  0
 26 56  1  0
 26 57  1  0
 27 28  1  0
 27 58  1  0
 27 59  1  0
 28 60  1  1
M  END
>  <i_m_ct_stereo_status>  (131) 
1

>  <s_m_source_file>  (131) 
/var/tmp/pbs.5083858.sched01/tmpsrgifhn0/551fl8t6n1.sdf

>  <i_m_source_file_index>  (131) 
3

>  <i_lp_mmshare_version>  (131) 
48012

>  <i_f3d_flags>  (131) 
0

>  <s_epik_input>  (131) 
W0NIM11DKD1PKU9bQ0BASF0oW0NAQEhdMVtDSDNdKU9bQ0BASF0oW0NAXTEyMylPW0NAQF0oW0NIM10pKE9PMilbQ0BIXTRbQ0BdNShbQ0BASF0oW0NIM10pW0NIMl1bQ0gyXTQpW0NASF0zW0NIMl1bQ0gyXVtDSDJdW0NAQF01KFtDSDNdKVtPSF0=

>  <s_epik_cmdline>  (131) 
J2VwaWtfcHl0aG9uJywgJy1waHQnLCAnMi4wJywgJy1waCcsICc3LjAnLCAnLXRuJywgJzgnLCAnLW1hJywgJzIwMCcsICctaW1hZScsICc8aW5maWxlLm1hZT4nLCAnLW9tYWUnLCAnPG91dGZpbGUubWFlPic=

>  <r_lp_tautomer_probability>  (131) 
1

>  <r_epik_Ionization_Penalty>  (131) 
2.38332e-07

>  <r_epik_Ionization_Penalty_Charging>  (131) 
0

>  <r_epik_Ionization_Penalty_Neutral>  (131) 
2.38332e-07

>  <r_epik_State_Penalty>  (131) 
-0

>  <r_epik_Charging_Adjusted_Penalty>  (131) 
0

>  <i_epik_Tot_Q>  (131) 
0

>  <i_epik_Tot_abs_Q>  (131) 
0

>  <s_epik_Chemistry_Notes>  (131) 
This compound has an ester and may undergo hydrolysis at high or low pH. This compound contains an acetal/aminal-like group ( X-CH(R)-Y where X, Y are N, S, or O) that may be acid/base labile, releasing an aldehyde.

>  <s_lp_Force_Field>  (131) 
OPLS3e

>  <r_lp_Energy>  (131) 
66.6598

>  <b_lp_Chiralities_Consistent>  (131) 
1

>  <s_lp_Variant>  (131) 
44:0-1

>  <s_i_glide_gridfile>  (131) 
pfpi4k_grid

>  <i_i_glide_lignum>  (131) 
3

>  <i_i_glide_rotatable_bonds>  (131) 
3

>  <r_i_docking_score>  (131) 
-2.42208

>  <r_i_glide_ligand_efficiency>  (131) 
-0.0865029

>  <r_i_glide_ligand_efficiency_sa>  (131) 
-0.262674

>  <r_i_glide_ligand_efficiency_ln>  (131) 
-0.559088

>  <r_i_glide_gscore>  (131) 
-2.42208

>  <r_i_glide_lipo>  (131) 
-0.32538

>  <r_i_glide_hbond>  (131) 
-0.287821

>  <r_i_glide_metal>  (131) 
-0

>  <r_i_glide_rewards>  (131) 
-0.707077

>  <r_i_glide_evdw>  (131) 
-15.3894

>  <r_i_glide_ecoul>  (131) 
-2.56417

>  <r_i_glide_erotb>  (131) 
0.124467

>  <r_i_glide_esite>  (131) 
-0.0721766

>  <r_i_glide_emodel>  (131) 
-15.798

>  <r_i_glide_energy>  (131) 
-17.9535

>  <r_i_glide_einternal>  (131) 
9.16167

>  <r_i_glide_intrahb_reward>  (131) 
-0

>  <i_i_glide_confnum>  (131) 
3

>  <i_i_glide_posenum>  (131) 
18

>  <r_i_glide_eff_state_penalty>  (131) 
0

>  <ligand_id>  (131) 
44

>  <original_smiles>  (131) 
CC(=O)OC1OC2OC3(C)OOC2(C1C)C1CCCC(C)(O)C12C(C)CCC32

>  <smiles>  (131) 
[H]OC1(C([H])([H])[H])C([H])([H])C([H])([H])C([H])([H])C2([H])C34OOC(C([H])([H])[H])(OC3([H])OC([H])(OC(=O)C([H])([H])[H])C4([H])C([H])([H])[H])C3([H])C([H])([H])C([H])([H])C([H])(C([H])([H])[H])C321

$$$$
44:0:2
     RDKit          3D

 60 64  0  0  1  0  0  0  0  0999 V2000
   -0.0133   -7.5268    4.6500 C   0  0  0  0  0  0  0  0  0  0  0  0
   -0.1944   -7.0587    3.2011 C   0  0  0  0  0  0  0  0  0  0  0  0
   -0.9836   -7.6300    2.4701 O   0  0  0  0  0  0  0  0  0  0  0  0
    0.5575   -5.9990    2.7929 O   0  0  0  0  0  0  0  0  0  0  0  0
    1.1622   -5.1998    3.7613 C   0  0  2  0  0  0  0  0  0  0  0  0
    1.1544   -3.8644    3.3424 O   0  0  0  0  0  0  0  0  0  0  0  0
    2.4224   -3.3517    3.5232 C   0  0  2  0  0  0  0  0  0  0  0  0
    2.6675   -2.1979    2.8010 O   0  0  0  0  0  0  0  0  0  0  0  0
    4.0691   -1.9353    2.7377 C   0  0  1  0  0  0  0  0  0  0  0  0
    4.2319   -0.4746    3.1744 C   0  0  0  0  0  0  0  0  0  0  0  0
    4.8444   -2.6581    3.7187 O   0  0  0  0  0  0  0  0  0  0  0  0
    4.6699   -4.1501    3.5847 O   0  0  0  0  0  0  0  0  0  0  0  0
    3.3822   -4.4698    3.1122 C   0  0  1  0  0  0  0  0  0  0  0  0
    2.6652   -5.6042    3.8967 C   0  0  1  0  0  0  0  0  0  0  0  0
    2.9958   -5.7144    5.3973 C   0  0  0  0  0  0  0  0  0  0  0  0
    3.4004   -4.6076    1.5404 C   0  0  2  0  0  0  0  0  0  0  0  0
    3.5150   -6.0664    1.0118 C   0  0  0  0  0  0  0  0  0  0  0  0
    4.9365   -6.6088    1.0506 C   0  0  0  0  0  0  0  0  0  0  0  0
    5.7708   -5.7569    0.1037 C   0  0  0  0  0  0  0  0  0  0  0  0
    5.8180   -4.2793    0.5124 C   0  0  1  0  0  0  0  0  0  0  0  0
    6.8322   -4.1797    1.6673 C   0  0  0  0  0  0  0  0  0  0  0  0
    6.5253   -3.6088   -0.5211 O   0  0  0  0  0  0  0  0  0  0  0  0
    4.3582   -3.6470    0.6895 C   0  0  1  0  0  0  0  0  0  0  0  0
    3.7399   -3.3945   -0.7646 C   0  0  1  0  0  0  0  0  0  0  0  0
    2.2343   -3.6483   -1.0091 C   0  0  0  0  0  0  0  0  0  0  0  0
    3.9951   -1.9165   -1.0816 C   0  0  0  0  0  0  0  0  0  0  0  0
    3.8297   -1.2316    0.2619 C   0  0  0  0  0  0  0  0  0  0  0  0
    4.5042   -2.1862    1.2659 C   0  0  1  0  0  0  0  0  0  0  0  0
   -0.1735   -6.6845    5.3303 H   0  0  0  0  0  0  0  0  0  0  0  0
    0.9990   -7.9083    4.8012 H   0  0  0  0  0  0  0  0  0  0  0  0
   -0.6870   -8.3662    4.8852 H   0  0  0  0  0  0  0  0  0  0  0  0
    0.6110   -5.2508    4.6997 H   0  0  0  0  0  0  0  0  0  0  0  0
    2.5149   -3.0910    4.5872 H   0  0  0  0  0  0  0  0  0  0  0  0
    3.9471   -0.3817    4.2185 H   0  0  0  0  0  0  0  0  0  0  0  0
    3.5960    0.2021    2.6028 H   0  0  0  0  0  0  0  0  0  0  0  0
    5.2647   -0.1559    3.0779 H   0  0  0  0  0  0  0  0  0  0  0  0
    2.8694   -6.5930    3.4936 H   0  0  0  0  0  0  0  0  0  0  0  0
    2.7638   -4.8061    5.9501 H   0  0  0  0  0  0  0  0  0  0  0  0
    4.0383   -5.9651    5.5691 H   0  0  0  0  0  0  0  0  0  0  0  0
    2.4013   -6.5047    5.8502 H   0  0  0  0  0  0  0  0  0  0  0  0
    2.3766   -4.3481    1.3018 H   0  0  0  0  0  0  0  0  0  0  0  0
    2.8261   -6.7654    1.4826 H   0  0  0  0  0  0  0  0  0  0  0  0
    3.2026   -6.1076   -0.0315 H   0  0  0  0  0  0  0  0  0  0  0  0
    5.3304   -6.6158    2.0674 H   0  0  0  0  0  0  0  0  0  0  0  0
    4.9403   -7.6447    0.7061 H   0  0  0  0  0  0  0  0  0  0  0  0
    6.7808   -6.1655    0.0606 H   0  0  0  0  0  0  0  0  0  0  0  0
    5.3341   -5.8499   -0.8897 H   0  0  0  0  0  0  0  0  0  0  0  0
    6.6016   -4.8261    2.5084 H   0  0  0  0  0  0  0  0  0  0  0  0
    6.9562   -3.1647    2.0335 H   0  0  0  0  0  0  0  0  0  0  0  0
    7.8228   -4.4926    1.3301 H   0  0  0  0  0  0  0  0  0  0  0  0
    6.0409   -3.7174   -1.3260 H   0  0  0  0  0  0  0  0  0  0  0  0
    4.2355   -4.0120   -1.5129 H   0  0  0  0  0  0  0  0  0  0  0  0
    1.6316   -3.0733   -0.3180 H   0  0  0  0  0  0  0  0  0  0  0  0
    1.9380   -4.6873   -0.9202 H   0  0  0  0  0  0  0  0  0  0  0  0
    1.9493   -3.3433   -2.0143 H   0  0  0  0  0  0  0  0  0  0  0  0
    5.0071   -1.7615   -1.4512 H   0  0  0  0  0  0  0  0  0  0  0  0
    3.3173   -1.5129   -1.8350 H   0  0  0  0  0  0  0  0  0  0  0  0
    4.2718   -0.2328    0.2626 H   0  0  0  0  0  0  0  0  0  0  0  0
    2.7673   -1.1123    0.4833 H   0  0  0  0  0  0  0  0  0  0  0  0
    5.5440   -1.8809    1.2066 H   0  0  0  0  0  0  0  0  0  0  0  0
  1  2  1  0
  1 29  1  0
  1 30  1  0
  1 31  1  0
  2  3  2  0
  2  4  1  0
  4  5  1  0
  5 14  1  0
  5  6  1  0
  5 32  1  1
  6  7  1  0
  7 13  1  0
  7  8  1  0
  7 33  1  1
  8  9  1  0
  9 28  1  0
  9 10  1  1
  9 11  1  0
 10 34  1  0
 10 35  1  0
 10 36  1  0
 11 12  1  0
 13 12  1  1
 13 14  1  0
 13 16  1  0
 14 15  1  0
 14 37  1  6
 15 38  1  0
 15 39  1  0
 15 40  1  0
 16 23  1  0
 16 17  1  0
 16 41  1  6
 17 18  1  0
 17 42  1  0
 17 43  1  0
 18 19  1  0
 18 44  1  0
 18 45  1  0
 19 20  1  0
 19 46  1  0
 19 47  1  0
 20 21  1  0
 20 22  1  6
 23 20  1  6
 21 48  1  0
 21 49  1  0
 21 50  1  0
 22 51  1  0
 23 28  1  0
 23 24  1  0
 24 25  1  0
 24 26  1  0
 24 52  1  6
 25 53  1  0
 25 54  1  0
 25 55  1  0
 26 27  1  0
 26 56  1  0
 26 57  1  0
 27 28  1  0
 27 58  1  0
 27 59  1  0
 28 60  1  1
M  END
>  <i_m_ct_stereo_status>  (132) 
1

>  <s_m_source_file>  (132) 
/var/tmp/pbs.5083858.sched01/tmpsrgifhn0/551fl8t6n1.sdf

>  <i_m_source_file_index>  (132) 
3

>  <i_lp_mmshare_version>  (132) 
48012

>  <i_f3d_flags>  (132) 
0

>  <s_epik_input>  (132) 
W0NIM11DKD1PKU9bQ0BASF0oW0NAQEhdMVtDSDNdKU9bQ0BASF0oW0NAXTEyMylPW0NAQF0oW0NIM10pKE9PMilbQ0BIXTRbQ0BdNShbQ0BASF0oW0NIM10pW0NIMl1bQ0gyXTQpW0NASF0zW0NIMl1bQ0gyXVtDSDJdW0NAQF01KFtDSDNdKVtPSF0=

>  <s_epik_cmdline>  (132) 
J2VwaWtfcHl0aG9uJywgJy1waHQnLCAnMi4wJywgJy1waCcsICc3LjAnLCAnLXRuJywgJzgnLCAnLW1hJywgJzIwMCcsICctaW1hZScsICc8aW5maWxlLm1hZT4nLCAnLW9tYWUnLCAnPG91dGZpbGUubWFlPic=

>  <r_lp_tautomer_probability>  (132) 
1

>  <r_epik_Ionization_Penalty>  (132) 
2.38332e-07

>  <r_epik_Ionization_Penalty_Charging>  (132) 
0

>  <r_epik_Ionization_Penalty_Neutral>  (132) 
2.38332e-07

>  <r_epik_State_Penalty>  (132) 
-0

>  <r_epik_Charging_Adjusted_Penalty>  (132) 
0

>  <i_epik_Tot_Q>  (132) 
0

>  <i_epik_Tot_abs_Q>  (132) 
0

>  <s_epik_Chemistry_Notes>  (132) 
This compound has an ester and may undergo hydrolysis at high or low pH. This compound contains an acetal/aminal-like group ( X-CH(R)-Y where X, Y are N, S, or O) that may be acid/base labile, releasing an aldehyde.

>  <s_lp_Force_Field>  (132) 
OPLS3e

>  <r_lp_Energy>  (132) 
66.6598

>  <b_lp_Chiralities_Consistent>  (132) 
1

>  <s_lp_Variant>  (132) 
44:0-1

>  <s_i_glide_gridfile>  (132) 
pfpi4k_grid

>  <i_i_glide_lignum>  (132) 
3

>  <i_i_glide_rotatable_bonds>  (132) 
3

>  <r_i_docking_score>  (132) 
-2.29075

>  <r_i_glide_ligand_efficiency>  (132) 
-0.0818125

>  <r_i_glide_ligand_efficiency_sa>  (132) 
-0.248431

>  <r_i_glide_ligand_efficiency_ln>  (132) 
-0.528773

>  <r_i_glide_gscore>  (132) 
-2.29075

>  <r_i_glide_lipo>  (132) 
-0.481057

>  <r_i_glide_hbond>  (132) 
-0.0590365

>  <r_i_glide_metal>  (132) 
-0

>  <r_i_glide_rewards>  (132) 
-0.710084

>  <r_i_glide_evdw>  (132) 
-22.9017

>  <r_i_glide_ecoul>  (132) 
0.420046

>  <r_i_glide_erotb>  (132) 
0.124467

>  <r_i_glide_esite>  (132) 
-0.0829638

>  <r_i_glide_emodel>  (132) 
-19.7694

>  <r_i_glide_energy>  (132) 
-22.4816

>  <r_i_glide_einternal>  (132) 
10.7051

>  <r_i_glide_intrahb_reward>  (132) 
-0

>  <i_i_glide_confnum>  (132) 
6

>  <i_i_glide_posenum>  (132) 
5

>  <r_i_glide_eff_state_penalty>  (132) 
0

>  <ligand_id>  (132) 
44

>  <original_smiles>  (132) 
CC(=O)OC1OC2OC3(C)OOC2(C1C)C1CCCC(C)(O)C12C(C)CCC32

>  <smiles>  (132) 
[H]OC1(C([H])([H])[H])C([H])([H])C([H])([H])C([H])([H])C2([H])C34OOC(C([H])([H])[H])(OC3([H])OC([H])(OC(=O)C([H])([H])[H])C4([H])C([H])([H])[H])C3([H])C([H])([H])C([H])([H])C([H])(C([H])([H])[H])C321

$$$$
45:0:0
     RDKit          3D

 30 32  0  0  1  0  0  0  0  0999 V2000
    1.5232   -9.2368    2.1792 C   0  0  0  0  0  0  0  0  0  0  0  0
    1.7513   -7.8660    1.7696 N   0  0  0  0  0  0  0  0  0  0  0  0
    0.7515   -7.0328    1.4067 N   0  0  0  0  0  0  0  0  0  0  0  0
    1.3304   -5.9277    1.0715 N   0  0  0  0  0  0  0  0  0  0  0  0
    2.6636   -6.1337    1.2333 C   0  0  0  0  0  0  0  0  0  0  0  0
    3.7127   -5.1068    0.9807 C   0  0  0  0  0  0  0  0  0  0  0  0
    3.5774   -4.4341   -0.3142 N   0  0  0  0  0  0  0  0  0  0  0  0
    4.6876   -3.5471   -0.6933 C   0  0  0  0  0  0  0  0  0  0  0  0
    4.3575   -2.6821   -1.8897 C   0  0  0  0  0  0  0  0  0  0  0  0
    4.0595   -3.1983   -3.1718 C   0  0  0  0  0  0  0  0  0  0  0  0
    3.8142   -2.3943   -4.2354 N   0  0  0  0  0  0  0  0  0  0  0  0
    3.8462   -1.0622   -4.0102 C   0  0  0  0  0  0  0  0  0  0  0  0
    4.1564   -0.5422   -2.7439 C   0  0  0  0  0  0  0  0  0  0  0  0
    4.4064   -1.3431   -1.6827 N   0  0  0  0  0  0  0  0  0  0  0  0
    5.6455   -3.0138    0.3718 C   0  0  0  0  0  0  0  0  0  0  0  0
    6.1032   -4.0844   -0.5942 C   0  0  0  0  0  0  0  0  0  0  0  0
    2.9833   -7.3386    1.6854 N   0  0  0  0  0  0  0  0  0  0  0  0
    0.6199   -9.6074    1.6981 H   0  0  0  0  0  0  0  0  0  0  0  0
    1.3931   -9.2687    3.2604 H   0  0  0  0  0  0  0  0  0  0  0  0
    2.3691   -9.8643    1.8853 H   0  0  0  0  0  0  0  0  0  0  0  0
    3.6497   -4.3745    1.7936 H   0  0  0  0  0  0  0  0  0  0  0  0
    4.6668   -5.6329    1.0528 H   0  0  0  0  0  0  0  0  0  0  0  0
    3.4034   -5.1247   -1.0429 H   0  0  0  0  0  0  0  0  0  0  0  0
    4.0391   -4.2599   -3.3712 H   0  0  0  0  0  0  0  0  0  0  0  0
    3.6523   -0.4052   -4.8500 H   0  0  0  0  0  0  0  0  0  0  0  0
    4.2245    0.5249   -2.5841 H   0  0  0  0  0  0  0  0  0  0  0  0
    6.0440   -2.0086    0.2299 H   0  0  0  0  0  0  0  0  0  0  0  0
    5.5037   -3.2899    1.4155 H   0  0  0  0  0  0  0  0  0  0  0  0
    6.2493   -5.0935   -0.2107 H   0  0  0  0  0  0  0  0  0  0  0  0
    6.8113   -3.7787   -1.3652 H   0  0  0  0  0  0  0  0  0  0  0  0
  1  2  1  0
  1 18  1  0
  1 19  1  0
  1 20  1  0
  2 17  1  0
  2  3  1  0
  3  4  2  0
  4  5  1  0
  5  6  1  0
  5 17  2  0
  6  7  1  0
  6 21  1  0
  6 22  1  0
  7  8  1  0
  7 23  1  0
  8 16  1  0
  8  9  1  0
  8 15  1  0
  9 14  1  0
  9 10  2  0
 10 11  1  0
 10 24  1  0
 11 12  2  0
 12 13  1  0
 12 25  1  0
 13 14  2  0
 13 26  1  0
 15 16  1  0
 15 27  1  0
 15 28  1  0
 16 29  1  0
 16 30  1  0
M  END
>  <i_m_ct_stereo_status>  (133) 
1

>  <s_m_source_file>  (133) 
/var/tmp/pbs.5083858.sched01/tmpsrgifhn0/551fl8t6n1.sdf

>  <i_m_source_file_index>  (133) 
4

>  <i_lp_mmshare_version>  (133) 
48012

>  <i_f3d_flags>  (133) 
0

>  <s_epik_input>  (133) 
W0NIM11uMW5uYyhuMSlbQ0gyXVtOSF1DMihbQ0gyXVtDSDJdMiljM1tjSF1uW2NIXVtjSF1uMw==

>  <s_epik_cmdline>  (133) 
J2VwaWtfcHl0aG9uJywgJy1waHQnLCAnMi4wJywgJy1waCcsICc3LjAnLCAnLXRuJywgJzgnLCAnLW1hJywgJzIwMCcsICctaW1hZScsICc8aW5maWxlLm1hZT4nLCAnLW9tYWUnLCAnPG91dGZpbGUubWFlPic=

>  <r_lp_tautomer_probability>  (133) 
1

>  <r_epik_Ionization_Penalty>  (133) 
0.00153218

>  <r_epik_Ionization_Penalty_Charging>  (133) 
0

>  <r_epik_Ionization_Penalty_Neutral>  (133) 
0.00153218

>  <r_epik_State_Penalty>  (133) 
0.00102235

>  <r_epik_Charging_Adjusted_Penalty>  (133) 
0.00102235

>  <i_epik_Tot_Q>  (133) 
0

>  <i_epik_Tot_abs_Q>  (133) 
0

>  <s_lp_Force_Field>  (133) 
OPLS3e

>  <r_lp_Energy>  (133) 
16.3154

>  <b_lp_Chiralities_Consistent>  (133) 
1

>  <s_lp_Variant>  (133) 
45:0-1

>  <s_i_glide_gridfile>  (133) 
pfpi4k_grid

>  <i_i_glide_lignum>  (133) 
4

>  <i_i_glide_rotatable_bonds>  (133) 
4

>  <r_i_docking_score>  (133) 
-4.31377

>  <r_i_glide_ligand_efficiency>  (133) 
-0.253751

>  <r_i_glide_ligand_efficiency_sa>  (133) 
-0.652466

>  <r_i_glide_ligand_efficiency_ln>  (133) 
-1.12537

>  <r_i_glide_gscore>  (133) 
-4.31377

>  <r_i_glide_lipo>  (133) 
-0.52681

>  <r_i_glide_hbond>  (133) 
-0.608

>  <r_i_glide_metal>  (133) 
-0

>  <r_i_glide_rewards>  (133) 
-1.83234

>  <r_i_glide_evdw>  (133) 
-22.736

>  <r_i_glide_ecoul>  (133) 
-8.48156

>  <r_i_glide_erotb>  (133) 
1.27928

>  <r_i_glide_esite>  (133) 
-0.216874

>  <r_i_glide_emodel>  (133) 
-36.0668

>  <r_i_glide_energy>  (133) 
-31.2175

>  <r_i_glide_einternal>  (133) 
8.37929

>  <r_i_glide_intrahb_reward>  (133) 
-0

>  <i_i_glide_confnum>  (133) 
6

>  <i_i_glide_posenum>  (133) 
15

>  <r_i_glide_eff_state_penalty>  (133) 
0

>  <ligand_id>  (133) 
45

>  <original_smiles>  (133) 
Cn1nnc(CNC2(c3cnccn3)CC2)n1

>  <smiles>  (133) 
[H]c1nc([H])c(C2(N([H])C([H])([H])c3nnn(C([H])([H])[H])n3)C([H])([H])C2([H])[H])nc1[H]

$$$$
45:0:1
     RDKit          3D

 30 32  0  0  1  0  0  0  0  0999 V2000
    0.6048   -9.5997    2.4864 C   0  0  0  0  0  0  0  0  0  0  0  0
    0.8894   -8.2527    2.0486 N   0  0  0  0  0  0  0  0  0  0  0  0
   -0.0834   -7.3554    1.7680 N   0  0  0  0  0  0  0  0  0  0  0  0
    0.5318   -6.3108    1.3156 N   0  0  0  0  0  0  0  0  0  0  0  0
    1.8589   -6.6279    1.3158 C   0  0  0  0  0  0  0  0  0  0  0  0
    2.9483   -5.6675    0.9669 C   0  0  0  0  0  0  0  0  0  0  0  0
    2.5646   -4.6379   -0.0034 N   0  0  0  0  0  0  0  0  0  0  0  0
    3.3792   -3.4149    0.0138 C   0  0  0  0  0  0  0  0  0  0  0  0
    3.4134   -2.6989   -1.3329 C   0  0  0  0  0  0  0  0  0  0  0  0
    4.2946   -1.6182   -1.5679 C   0  0  0  0  0  0  0  0  0  0  0  0
    4.3718   -0.9859   -2.7571 N   0  0  0  0  0  0  0  0  0  0  0  0
    3.5334   -1.4138   -3.7210 C   0  0  0  0  0  0  0  0  0  0  0  0
    2.6241   -2.4660   -3.4994 C   0  0  0  0  0  0  0  0  0  0  0  0
    2.5596   -3.1086   -2.3030 N   0  0  0  0  0  0  0  0  0  0  0  0
    3.2971   -2.5731    1.2686 C   0  0  0  0  0  0  0  0  0  0  0  0
    4.5850   -3.3019    0.9406 C   0  0  0  0  0  0  0  0  0  0  0  0
    2.1368   -7.8274    1.7940 N   0  0  0  0  0  0  0  0  0  0  0  0
   -0.3586   -9.9158    2.0836 H   0  0  0  0  0  0  0  0  0  0  0  0
    0.5768   -9.6230    3.5767 H   0  0  0  0  0  0  0  0  0  0  0  0
    1.3832  -10.2756    2.1198 H   0  0  0  0  0  0  0  0  0  0  0  0
    3.2244   -5.2211    1.9162 H   0  0  0  0  0  0  0  0  0  0  0  0
    3.8106   -6.2189    0.5836 H   0  0  0  0  0  0  0  0  0  0  0  0
    2.5700   -5.0051   -0.9546 H   0  0  0  0  0  0  0  0  0  0  0  0
    4.9529   -1.2348   -0.8091 H   0  0  0  0  0  0  0  0  0  0  0  0
    3.6051   -0.9018   -4.6722 H   0  0  0  0  0  0  0  0  0  0  0  0
    1.9602   -2.7939   -4.2860 H   0  0  0  0  0  0  0  0  0  0  0  0
    3.2722   -1.4916    1.1531 H   0  0  0  0  0  0  0  0  0  0  0  0
    2.6855   -2.9447    2.0875 H   0  0  0  0  0  0  0  0  0  0  0  0
    4.8594   -4.1293    1.5878 H   0  0  0  0  0  0  0  0  0  0  0  0
    5.4282   -2.7132    0.5846 H   0  0  0  0  0  0  0  0  0  0  0  0
  1  2  1  0
  1 18  1  0
  1 19  1  0
  1 20  1  0
  2 17  1  0
  2  3  1  0
  3  4  2  0
  4  5  1  0
  5  6  1  0
  5 17  2  0
  6  7  1  0
  6 21  1  0
  6 22  1  0
  7  8  1  0
  7 23  1  0
  8 16  1  0
  8  9  1  0
  8 15  1  0
  9 14  1  0
  9 10  2  0
 10 11  1  0
 10 24  1  0
 11 12  2  0
 12 13  1  0
 12 25  1  0
 13 14  2  0
 13 26  1  0
 15 16  1  0
 15 27  1  0
 15 28  1  0
 16 29  1  0
 16 30  1  0
M  END
>  <i_m_ct_stereo_status>  (134) 
1

>  <s_m_source_file>  (134) 
/var/tmp/pbs.5083858.sched01/tmpsrgifhn0/551fl8t6n1.sdf

>  <i_m_source_file_index>  (134) 
4

>  <i_lp_mmshare_version>  (134) 
48012

>  <i_f3d_flags>  (134) 
0

>  <s_epik_input>  (134) 
W0NIM11uMW5uYyhuMSlbQ0gyXVtOSF1DMihbQ0gyXVtDSDJdMiljM1tjSF1uW2NIXVtjSF1uMw==

>  <s_epik_cmdline>  (134) 
J2VwaWtfcHl0aG9uJywgJy1waHQnLCAnMi4wJywgJy1waCcsICc3LjAnLCAnLXRuJywgJzgnLCAnLW1hJywgJzIwMCcsICctaW1hZScsICc8aW5maWxlLm1hZT4nLCAnLW9tYWUnLCAnPG91dGZpbGUubWFlPic=

>  <r_lp_tautomer_probability>  (134) 
1

>  <r_epik_Ionization_Penalty>  (134) 
0.00153218

>  <r_epik_Ionization_Penalty_Charging>  (134) 
0

>  <r_epik_Ionization_Penalty_Neutral>  (134) 
0.00153218

>  <r_epik_State_Penalty>  (134) 
0.00102235

>  <r_epik_Charging_Adjusted_Penalty>  (134) 
0.00102235

>  <i_epik_Tot_Q>  (134) 
0

>  <i_epik_Tot_abs_Q>  (134) 
0

>  <s_lp_Force_Field>  (134) 
OPLS3e

>  <r_lp_Energy>  (134) 
16.3154

>  <b_lp_Chiralities_Consistent>  (134) 
1

>  <s_lp_Variant>  (134) 
45:0-1

>  <s_i_glide_gridfile>  (134) 
pfpi4k_grid

>  <i_i_glide_lignum>  (134) 
4

>  <i_i_glide_rotatable_bonds>  (134) 
4

>  <r_i_docking_score>  (134) 
-3.68992

>  <r_i_glide_ligand_efficiency>  (134) 
-0.217054

>  <r_i_glide_ligand_efficiency_sa>  (134) 
-0.558108

>  <r_i_glide_ligand_efficiency_ln>  (134) 
-0.962619

>  <r_i_glide_gscore>  (134) 
-3.68992

>  <r_i_glide_lipo>  (134) 
-0.485731

>  <r_i_glide_hbond>  (134) 
-0.32

>  <r_i_glide_metal>  (134) 
-0

>  <r_i_glide_rewards>  (134) 
-1.83234

>  <r_i_glide_evdw>  (134) 
-25.2422

>  <r_i_glide_ecoul>  (134) 
-5.38039

>  <r_i_glide_erotb>  (134) 
1.27928

>  <r_i_glide_esite>  (134) 
-0.261967

>  <r_i_glide_emodel>  (134) 
-33.2297

>  <r_i_glide_energy>  (134) 
-30.6226

>  <r_i_glide_einternal>  (134) 
10.1813

>  <r_i_glide_intrahb_reward>  (134) 
-0

>  <i_i_glide_confnum>  (134) 
6

>  <i_i_glide_posenum>  (134) 
38

>  <r_i_glide_eff_state_penalty>  (134) 
0

>  <ligand_id>  (134) 
45

>  <original_smiles>  (134) 
Cn1nnc(CNC2(c3cnccn3)CC2)n1

>  <smiles>  (134) 
[H]c1nc([H])c(C2(N([H])C([H])([H])c3nnn(C([H])([H])[H])n3)C([H])([H])C2([H])[H])nc1[H]

$$$$
45:0:2
     RDKit          3D

 30 32  0  0  1  0  0  0  0  0999 V2000
    0.4735   -7.9562    2.4688 C   0  0  0  0  0  0  0  0  0  0  0  0
    1.3917   -6.9695    1.9363 N   0  0  0  0  0  0  0  0  0  0  0  0
    2.5615   -6.6782    2.5426 N   0  0  0  0  0  0  0  0  0  0  0  0
    3.1015   -5.7431    1.8372 N   0  0  0  0  0  0  0  0  0  0  0  0
    2.2231   -5.4661    0.8288 C   0  0  0  0  0  0  0  0  0  0  0  0
    2.4413   -4.3886   -0.1980 C   0  0  0  0  0  0  0  0  0  0  0  0
    3.2428   -3.2510    0.2654 N   0  0  0  0  0  0  0  0  0  0  0  0
    4.3973   -3.0454   -0.6069 C   0  0  0  0  0  0  0  0  0  0  0  0
    4.0897   -2.2566   -1.8492 C   0  0  0  0  0  0  0  0  0  0  0  0
    3.5327   -2.8351   -3.0122 C   0  0  0  0  0  0  0  0  0  0  0  0
    3.2901   -2.1259   -4.1339 N   0  0  0  0  0  0  0  0  0  0  0  0
    3.5749   -0.8113   -4.0798 C   0  0  0  0  0  0  0  0  0  0  0  0
    4.1380   -0.2353   -2.9281 C   0  0  0  0  0  0  0  0  0  0  0  0
    4.4037   -0.9445   -1.8105 N   0  0  0  0  0  0  0  0  0  0  0  0
    5.7420   -2.8560    0.0686 C   0  0  0  0  0  0  0  0  0  0  0  0
    5.4595   -4.1218   -0.6934 C   0  0  0  0  0  0  0  0  0  0  0  0
    1.1375   -6.2369    0.8342 N   0  0  0  0  0  0  0  0  0  0  0  0
    0.5915   -8.0254    3.5520 H   0  0  0  0  0  0  0  0  0  0  0  0
    0.6911   -8.9285    2.0270 H   0  0  0  0  0  0  0  0  0  0  0  0
   -0.5560   -7.6732    2.2436 H   0  0  0  0  0  0  0  0  0  0  0  0
    2.9010   -4.8437   -1.0674 H   0  0  0  0  0  0  0  0  0  0  0  0
    1.4788   -4.0239   -0.5515 H   0  0  0  0  0  0  0  0  0  0  0  0
    2.6677   -2.4153    0.2303 H   0  0  0  0  0  0  0  0  0  0  0  0
    3.2860   -3.8770   -3.0594 H   0  0  0  0  0  0  0  0  0  0  0  0
    3.3388   -0.2131   -4.9470 H   0  0  0  0  0  0  0  0  0  0  0  0
    4.3535    0.8207   -2.9039 H   0  0  0  0  0  0  0  0  0  0  0  0
    6.4465   -2.1498   -0.3694 H   0  0  0  0  0  0  0  0  0  0  0  0
    5.7801   -2.9346    1.1524 H   0  0  0  0  0  0  0  0  0  0  0  0
    5.3331   -5.0299   -0.1066 H   0  0  0  0  0  0  0  0  0  0  0  0
    5.9553   -4.2460   -1.6548 H   0  0  0  0  0  0  0  0  0  0  0  0
  1  2  1  0
  1 18  1  0
  1 19  1  0
  1 20  1  0
  2 17  1  0
  2  3  1  0
  3  4  2  0
  4  5  1  0
  5  6  1  0
  5 17  2  0
  6  7  1  0
  6 21  1  0
  6 22  1  0
  7  8  1  0
  7 23  1  0
  8 16  1  0
  8  9  1  0
  8 15  1  0
  9 14  1  0
  9 10  2  0
 10 11  1  0
 10 24  1  0
 11 12  2  0
 12 13  1  0
 12 25  1  0
 13 14  2  0
 13 26  1  0
 15 16  1  0
 15 27  1  0
 15 28  1  0
 16 29  1  0
 16 30  1  0
M  END
>  <i_m_ct_stereo_status>  (135) 
1

>  <s_m_source_file>  (135) 
/var/tmp/pbs.5083858.sched01/tmpsrgifhn0/551fl8t6n1.sdf

>  <i_m_source_file_index>  (135) 
4

>  <i_lp_mmshare_version>  (135) 
48012

>  <i_f3d_flags>  (135) 
0

>  <s_epik_input>  (135) 
W0NIM11uMW5uYyhuMSlbQ0gyXVtOSF1DMihbQ0gyXVtDSDJdMiljM1tjSF1uW2NIXVtjSF1uMw==

>  <s_epik_cmdline>  (135) 
J2VwaWtfcHl0aG9uJywgJy1waHQnLCAnMi4wJywgJy1waCcsICc3LjAnLCAnLXRuJywgJzgnLCAnLW1hJywgJzIwMCcsICctaW1hZScsICc8aW5maWxlLm1hZT4nLCAnLW9tYWUnLCAnPG91dGZpbGUubWFlPic=

>  <r_lp_tautomer_probability>  (135) 
1

>  <r_epik_Ionization_Penalty>  (135) 
0.00153218

>  <r_epik_Ionization_Penalty_Charging>  (135) 
0

>  <r_epik_Ionization_Penalty_Neutral>  (135) 
0.00153218

>  <r_epik_State_Penalty>  (135) 
0.00102235

>  <r_epik_Charging_Adjusted_Penalty>  (135) 
0.00102235

>  <i_epik_Tot_Q>  (135) 
0

>  <i_epik_Tot_abs_Q>  (135) 
0

>  <s_lp_Force_Field>  (135) 
OPLS3e

>  <r_lp_Energy>  (135) 
16.3154

>  <b_lp_Chiralities_Consistent>  (135) 
1

>  <s_lp_Variant>  (135) 
45:0-1

>  <s_i_glide_gridfile>  (135) 
pfpi4k_grid

>  <i_i_glide_lignum>  (135) 
4

>  <i_i_glide_rotatable_bonds>  (135) 
4

>  <r_i_docking_score>  (135) 
-3.39633

>  <r_i_glide_ligand_efficiency>  (135) 
-0.199784

>  <r_i_glide_ligand_efficiency_sa>  (135) 
-0.513702

>  <r_i_glide_ligand_efficiency_ln>  (135) 
-0.886028

>  <r_i_glide_gscore>  (135) 
-3.39633

>  <r_i_glide_lipo>  (135) 
-0.509757

>  <r_i_glide_hbond>  (135) 
-0.331032

>  <r_i_glide_metal>  (135) 
-0

>  <r_i_glide_rewards>  (135) 
-1.83234

>  <r_i_glide_evdw>  (135) 
-21.2044

>  <r_i_glide_ecoul>  (135) 
-5.65471

>  <r_i_glide_erotb>  (135) 
1.27928

>  <r_i_glide_esite>  (135) 
-0.0940604

>  <r_i_glide_emodel>  (135) 
-32.5439

>  <r_i_glide_energy>  (135) 
-26.8591

>  <r_i_glide_einternal>  (135) 
3.01577

>  <r_i_glide_intrahb_reward>  (135) 
-0

>  <i_i_glide_confnum>  (135) 
5

>  <i_i_glide_posenum>  (135) 
39

>  <r_i_glide_eff_state_penalty>  (135) 
0

>  <ligand_id>  (135) 
45

>  <original_smiles>  (135) 
Cn1nnc(CNC2(c3cnccn3)CC2)n1

>  <smiles>  (135) 
[H]c1nc([H])c(C2(N([H])C([H])([H])c3nnn(C([H])([H])[H])n3)C([H])([H])C2([H])[H])nc1[H]

$$$$
46:0:0
     RDKit          3D

 57 60  0  0  1  0  0  0  0  0999 V2000
    3.4399   -8.9074    4.8102 C   0  0  0  0  0  0  0  0  0  0  0  0
    4.0135   -8.0009    4.2168 C   0  0  0  0  0  0  0  0  0  0  0  0
    4.6189   -6.8580    3.4876 C   0  0  1  0  0  0  0  0  0  0  0  0
    4.0145   -5.6080    3.9058 O   0  0  0  0  0  0  0  0  0  0  0  0
    2.6602   -5.3391    3.9421 C   0  0  0  0  0  0  0  0  0  0  0  0
    2.3701   -3.8597    4.1242 C   0  0  0  0  0  0  0  0  0  0  0  0
    1.7330   -6.1337    3.7653 O   0  0  0  0  0  0  0  0  0  0  0  0
    6.1004   -6.7202    3.8947 C   0  0  0  0  0  0  0  0  0  0  0  0
    6.8085   -5.9763    2.7517 C   0  0  0  0  0  0  0  0  0  0  0  0
    5.9202   -6.0713    1.4948 C   0  0  2  0  0  0  0  0  0  0  0  0
    5.5151   -4.6642    0.9403 C   0  0  1  0  0  0  0  0  0  0  0  0
    6.7651   -4.0038    0.3151 C   0  0  0  0  0  0  0  0  0  0  0  0
    6.4637   -2.8390   -0.5976 C   0  0  0  0  0  0  0  0  0  0  0  0
    5.2491   -2.4793   -1.0193 C   0  0  0  0  0  0  0  0  0  0  0  0
    5.0622   -1.2300   -1.8795 C   0  0  0  0  0  0  0  0  0  0  0  0
    4.1488   -1.4749   -3.0770 C   0  0  0  0  0  0  0  0  0  0  0  0
    4.4092   -1.0963   -4.2126 O   0  0  0  0  0  0  0  0  0  0  0  0
    2.8621   -2.1997   -2.7873 C   0  0  0  0  0  0  0  0  0  0  0  0
    3.1405   -3.4500   -1.9573 C   0  0  0  0  0  0  0  0  0  0  0  0
    3.9729   -3.2612   -0.6554 C   0  0  2  0  0  0  0  0  0  0  0  0
    3.1930   -2.3832    0.3556 C   0  0  0  0  0  0  0  0  0  0  0  0
    4.3218   -4.6885   -0.0620 C   0  0  2  0  0  0  0  0  0  0  0  0
    3.1432   -5.3609    0.6954 C   0  0  1  0  0  0  0  0  0  0  0  0
    1.9111   -5.4606    0.0043 O   0  0  0  0  0  0  0  0  0  0  0  0
    3.4964   -6.8129    1.0910 C   0  0  0  0  0  0  0  0  0  0  0  0
    4.7719   -7.0232    1.9252 C   0  0  2  0  0  0  0  0  0  0  0  0
    5.2403   -8.4769    1.5643 C   0  0  0  0  0  0  0  0  0  0  0  0
    2.8721   -9.6618    5.3032 H   0  0  0  0  0  0  0  0  0  0  0  0
    2.8524   -3.4795    5.0312 H   0  0  0  0  0  0  0  0  0  0  0  0
    1.2910   -3.7068    4.1918 H   0  0  0  0  0  0  0  0  0  0  0  0
    2.7304   -3.3007    3.2599 H   0  0  0  0  0  0  0  0  0  0  0  0
    6.2174   -6.2157    4.8562 H   0  0  0  0  0  0  0  0  0  0  0  0
    6.5726   -7.7013    4.0026 H   0  0  0  0  0  0  0  0  0  0  0  0
    6.9355   -4.9448    3.0477 H   0  0  0  0  0  0  0  0  0  0  0  0
    7.8086   -6.3825    2.5841 H   0  0  0  0  0  0  0  0  0  0  0  0
    6.4996   -6.5618    0.7107 H   0  0  0  0  0  0  0  0  0  0  0  0
    5.2121   -4.0439    1.7892 H   0  0  0  0  0  0  0  0  0  0  0  0
    7.4324   -3.6469    1.1002 H   0  0  0  0  0  0  0  0  0  0  0  0
    7.3299   -4.7234   -0.2755 H   0  0  0  0  0  0  0  0  0  0  0  0
    7.3382   -2.2765   -0.9034 H   0  0  0  0  0  0  0  0  0  0  0  0
    4.6479   -0.4257   -1.2749 H   0  0  0  0  0  0  0  0  0  0  0  0
    6.0318   -0.9009   -2.2380 H   0  0  0  0  0  0  0  0  0  0  0  0
    2.2190   -1.5042   -2.2638 H   0  0  0  0  0  0  0  0  0  0  0  0
    2.3665   -2.4523   -3.7245 H   0  0  0  0  0  0  0  0  0  0  0  0
    2.1653   -3.8937   -1.7685 H   0  0  0  0  0  0  0  0  0  0  0  0
    3.6981   -4.1269   -2.6075 H   0  0  0  0  0  0  0  0  0  0  0  0
    2.2075   -2.7912    0.5790 H   0  0  0  0  0  0  0  0  0  0  0  0
    3.0160   -1.3793   -0.0363 H   0  0  0  0  0  0  0  0  0  0  0  0
    3.7420   -2.2691    1.2918 H   0  0  0  0  0  0  0  0  0  0  0  0
    4.6201   -5.3377   -0.8893 H   0  0  0  0  0  0  0  0  0  0  0  0
    2.9381   -4.7126    1.5268 H   0  0  0  0  0  0  0  0  0  0  0  0
    2.1002   -5.6181   -0.9230 H   0  0  0  0  0  0  0  0  0  0  0  0
    2.6562   -7.2800    1.6025 H   0  0  0  0  0  0  0  0  0  0  0  0
    3.6263   -7.3722    0.1723 H   0  0  0  0  0  0  0  0  0  0  0  0
    5.4372   -8.5878    0.4947 H   0  0  0  0  0  0  0  0  0  0  0  0
    4.4877   -9.2323    1.8021 H   0  0  0  0  0  0  0  0  0  0  0  0
    6.1631   -8.7679    2.0685 H   0  0  0  0  0  0  0  0  0  0  0  0
  1  2  3  0
  1 28  1  0
  3  2  1  1
  3 26  1  0
  3  4  1  0
  3  8  1  0
  4  5  1  0
  5  6  1  0
  5  7  2  0
  6 29  1  0
  6 30  1  0
  6 31  1  0
  8  9  1  0
  8 32  1  0
  8 33  1  0
  9 10  1  0
  9 34  1  0
  9 35  1  0
 10 26  1  0
 10 11  1  0
 10 36  1  6
 11 22  1  0
 11 12  1  0
 11 37  1  1
 12 13  1  0
 12 38  1  0
 12 39  1  0
 13 14  2  0
 13 40  1  0
 14 20  1  0
 14 15  1  0
 15 16  1  0
 15 41  1  0
 15 42  1  0
 16 17  2  0
 16 18  1  0
 18 19  1  0
 18 43  1  0
 18 44  1  0
 19 20  1  0
 19 45  1  0
 19 46  1  0
 20 21  1  1
 20 22  1  0
 21 47  1  0
 21 48  1  0
 21 49  1  0
 22 23  1  0
 22 50  1  6
 23 24  1  0
 23 25  1  0
 23 51  1  1
 24 52  1  0
 25 26  1  0
 25 53  1  0
 25 54  1  0
 26 27  1  1
 27 55  1  0
 27 56  1  0
 27 57  1  0
M  END
>  <i_m_ct_stereo_status>  (136) 
1

>  <s_m_source_file>  (136) 
/var/tmp/pbs.5083858.sched01/tmpsrgifhn0/551fl8t6n1.sdf

>  <i_m_source_file_index>  (136) 
5

>  <i_lp_mmshare_version>  (136) 
48012

>  <i_f3d_flags>  (136) 
0

>  <s_epik_input>  (136) 
W0NIM11DKD1PKU9bQ0BdKEMjW0NIXSkoW0NIMl1bQ0gyXTEpW0NAQF0oW0NIM10pKFtDSDJdW0NAQEhdKFtDQEhdMjMpW09IXSlbQ0BIXTFbQ0BIXTJbQ0gyXVtDSF09QyhbQ0BdMzRbQ0gzXSlbQ0gyXUMoPU8pW0NIMl1bQ0gyXTQ=

>  <s_epik_cmdline>  (136) 
J2VwaWtfcHl0aG9uJywgJy1waHQnLCAnMi4wJywgJy1waCcsICc3LjAnLCAnLXRuJywgJzgnLCAnLW1hJywgJzIwMCcsICctaW1hZScsICc8aW5maWxlLm1hZT4nLCAnLW9tYWUnLCAnPG91dGZpbGUubWFlPic=

>  <r_lp_tautomer_probability>  (136) 
1

>  <r_epik_Ionization_Penalty>  (136) 
2.38571e-07

>  <r_epik_Ionization_Penalty_Charging>  (136) 
0

>  <r_epik_Ionization_Penalty_Neutral>  (136) 
2.38571e-07

>  <r_epik_State_Penalty>  (136) 
-0

>  <r_epik_Charging_Adjusted_Penalty>  (136) 
0

>  <i_epik_Tot_Q>  (136) 
0

>  <i_epik_Tot_abs_Q>  (136) 
0

>  <s_epik_Chemistry_Notes>  (136) 
This compound has an ester and may undergo hydrolysis at high or low pH.

>  <s_lp_Force_Field>  (136) 
OPLS3e

>  <r_lp_Energy>  (136) 
44.8166

>  <b_lp_Chiralities_Consistent>  (136) 
1

>  <s_lp_Variant>  (136) 
46:0-1

>  <s_i_glide_gridfile>  (136) 
pfpi4k_grid

>  <i_i_glide_lignum>  (136) 
5

>  <i_i_glide_rotatable_bonds>  (136) 
4

>  <r_i_docking_score>  (136) 
-3.817

>  <r_i_glide_ligand_efficiency>  (136) 
-0.14137

>  <r_i_glide_ligand_efficiency_sa>  (136) 
-0.424111

>  <r_i_glide_ligand_efficiency_ln>  (136) 
-0.888534

>  <r_i_glide_gscore>  (136) 
-3.817

>  <r_i_glide_lipo>  (136) 
-0.494159

>  <r_i_glide_hbond>  (136) 
-0.438511

>  <r_i_glide_metal>  (136) 
-0

>  <r_i_glide_rewards>  (136) 
-0.942688

>  <r_i_glide_evdw>  (136) 
-24.0905

>  <r_i_glide_ecoul>  (136) 
-6.78819

>  <r_i_glide_erotb>  (136) 
0.281116

>  <r_i_glide_esite>  (136) 
0

>  <r_i_glide_emodel>  (136) 
-35.0583

>  <r_i_glide_energy>  (136) 
-30.8787

>  <r_i_glide_einternal>  (136) 
4.88147

>  <r_i_glide_intrahb_reward>  (136) 
-0

>  <i_i_glide_confnum>  (136) 
3

>  <i_i_glide_posenum>  (136) 
11

>  <r_i_glide_eff_state_penalty>  (136) 
0

>  <ligand_id>  (136) 
46

>  <original_smiles>  (136) 
C#CC1(OC(C)=O)CCC2C3CC=C4CC(=O)CCC4(C)C3C(O)CC21C

>  <smiles>  (136) 
[H]C#CC1(OC(=O)C([H])([H])[H])C([H])([H])C([H])([H])C2([H])C3([H])C([H])([H])C([H])=C4C([H])([H])C(=O)C([H])([H])C([H])([H])C4(C([H])([H])[H])C3([H])C([H])(O[H])C([H])([H])C12C([H])([H])[H]

$$$$
46:0:1
     RDKit          3D

 57 60  0  0  1  0  0  0  0  0999 V2000
    3.3913   -8.8330    4.7858 C   0  0  0  0  0  0  0  0  0  0  0  0
    3.9605   -7.9259    4.1968 C   0  0  0  0  0  0  0  0  0  0  0  0
    4.6823   -6.8331    3.4910 C   0  0  1  0  0  0  0  0  0  0  0  0
    3.9971   -5.5824    3.6994 O   0  0  0  0  0  0  0  0  0  0  0  0
    3.8476   -4.9538    4.8924 C   0  0  0  0  0  0  0  0  0  0  0  0
    3.1272   -3.6213    4.7356 C   0  0  0  0  0  0  0  0  0  0  0  0
    4.2248   -5.3533    5.9942 O   0  0  0  0  0  0  0  0  0  0  0  0
    6.1665   -6.7229    3.8982 C   0  0  0  0  0  0  0  0  0  0  0  0
    6.8493   -5.9780    2.7468 C   0  0  0  0  0  0  0  0  0  0  0  0
    5.9387   -6.0721    1.5003 C   0  0  2  0  0  0  0  0  0  0  0  0
    5.5275   -4.6611    0.9568 C   0  0  1  0  0  0  0  0  0  0  0  0
    6.7688   -4.0085    0.3037 C   0  0  0  0  0  0  0  0  0  0  0  0
    6.4668   -2.8483   -0.6087 C   0  0  0  0  0  0  0  0  0  0  0  0
    5.2428   -2.4847   -1.0212 C   0  0  0  0  0  0  0  0  0  0  0  0
    5.0646   -1.2369   -1.8862 C   0  0  0  0  0  0  0  0  0  0  0  0
    4.1462   -1.4774   -3.0801 C   0  0  0  0  0  0  0  0  0  0  0  0
    4.4005   -1.0839   -4.2153 O   0  0  0  0  0  0  0  0  0  0  0  0
    2.8605   -2.2012   -2.7845 C   0  0  0  0  0  0  0  0  0  0  0  0
    3.1364   -3.4539   -1.9494 C   0  0  0  0  0  0  0  0  0  0  0  0
    3.9668   -3.2612   -0.6391 C   0  0  2  0  0  0  0  0  0  0  0  0
    3.1913   -2.3794    0.3633 C   0  0  0  0  0  0  0  0  0  0  0  0
    4.2998   -4.6782    0.0006 C   0  0  2  0  0  0  0  0  0  0  0  0
    3.1335   -5.3543    0.7909 C   0  0  1  0  0  0  0  0  0  0  0  0
    1.9177   -5.4592    0.0779 O   0  0  0  0  0  0  0  0  0  0  0  0
    3.4873   -6.7991    1.1606 C   0  0  0  0  0  0  0  0  0  0  0  0
    4.7983   -7.0273    1.9421 C   0  0  2  0  0  0  0  0  0  0  0  0
    5.2500   -8.4818    1.5755 C   0  0  0  0  0  0  0  0  0  0  0  0
    2.9063   -9.6368    5.2964 H   0  0  0  0  0  0  0  0  0  0  0  0
    3.6502   -2.9908    4.0141 H   0  0  0  0  0  0  0  0  0  0  0  0
    3.0835   -3.0942    5.6893 H   0  0  0  0  0  0  0  0  0  0  0  0
    2.1090   -3.7851    4.3798 H   0  0  0  0  0  0  0  0  0  0  0  0
    6.3359   -6.2358    4.8589 H   0  0  0  0  0  0  0  0  0  0  0  0
    6.6141   -7.7130    3.9956 H   0  0  0  0  0  0  0  0  0  0  0  0
    6.9665   -4.9431    3.0364 H   0  0  0  0  0  0  0  0  0  0  0  0
    7.8474   -6.3747    2.5586 H   0  0  0  0  0  0  0  0  0  0  0  0
    6.5014   -6.5646    0.7067 H   0  0  0  0  0  0  0  0  0  0  0  0
    5.2383   -4.0339    1.8003 H   0  0  0  0  0  0  0  0  0  0  0  0
    7.4437   -3.6496    1.0825 H   0  0  0  0  0  0  0  0  0  0  0  0
    7.3329   -4.7288   -0.2873 H   0  0  0  0  0  0  0  0  0  0  0  0
    7.3343   -2.2822   -0.9195 H   0  0  0  0  0  0  0  0  0  0  0  0
    4.6539   -0.4307   -1.2825 H   0  0  0  0  0  0  0  0  0  0  0  0
    6.0306   -0.9068   -2.2491 H   0  0  0  0  0  0  0  0  0  0  0  0
    2.2135   -1.5046   -2.2603 H   0  0  0  0  0  0  0  0  0  0  0  0
    2.3599   -2.4520   -3.7197 H   0  0  0  0  0  0  0  0  0  0  0  0
    2.1628   -3.8988   -1.7596 H   0  0  0  0  0  0  0  0  0  0  0  0
    3.6918   -4.1315   -2.6012 H   0  0  0  0  0  0  0  0  0  0  0  0
    2.2111   -2.7948    0.5921 H   0  0  0  0  0  0  0  0  0  0  0  0
    3.0132   -1.3803   -0.0345 H   0  0  0  0  0  0  0  0  0  0  0  0
    3.7473   -2.2655    1.2950 H   0  0  0  0  0  0  0  0  0  0  0  0
    4.5692   -5.3377   -0.8225 H   0  0  0  0  0  0  0  0  0  0  0  0
    2.9129   -4.7797    1.6862 H   0  0  0  0  0  0  0  0  0  0  0  0
    2.1366   -5.6097   -0.8346 H   0  0  0  0  0  0  0  0  0  0  0  0
    2.6531   -7.2580    1.6915 H   0  0  0  0  0  0  0  0  0  0  0  0
    3.5888   -7.3397    0.2253 H   0  0  0  0  0  0  0  0  0  0  0  0
    5.4334   -8.5761    0.5042 H   0  0  0  0  0  0  0  0  0  0  0  0
    4.4913   -9.2296    1.8169 H   0  0  0  0  0  0  0  0  0  0  0  0
    6.1762   -8.7753    2.0726 H   0  0  0  0  0  0  0  0  0  0  0  0
  1  2  3  0
  1 28  1  0
  3  2  1  1
  3 26  1  0
  3  4  1  0
  3  8  1  0
  4  5  1  0
  5  6  1  0
  5  7  2  0
  6 29  1  0
  6 30  1  0
  6 31  1  0
  8  9  1  0
  8 32  1  0
  8 33  1  0
  9 10  1  0
  9 34  1  0
  9 35  1  0
 10 26  1  0
 10 11  1  0
 10 36  1  6
 11 22  1  0
 11 12  1  0
 11 37  1  1
 12 13  1  0
 12 38  1  0
 12 39  1  0
 13 14  2  0
 13 40  1  0
 14 20  1  0
 14 15  1  0
 15 16  1  0
 15 41  1  0
 15 42  1  0
 16 17  2  0
 16 18  1  0
 18 19  1  0
 18 43  1  0
 18 44  1  0
 19 20  1  0
 19 45  1  0
 19 46  1  0
 20 21  1  1
 20 22  1  0
 21 47  1  0
 21 48  1  0
 21 49  1  0
 22 23  1  0
 22 50  1  6
 23 24  1  0
 23 25  1  0
 23 51  1  1
 24 52  1  0
 25 26  1  0
 25 53  1  0
 25 54  1  0
 26 27  1  1
 27 55  1  0
 27 56  1  0
 27 57  1  0
M  END
>  <i_m_ct_stereo_status>  (137) 
1

>  <s_m_source_file>  (137) 
/var/tmp/pbs.5083858.sched01/tmpsrgifhn0/551fl8t6n1.sdf

>  <i_m_source_file_index>  (137) 
5

>  <i_lp_mmshare_version>  (137) 
48012

>  <i_f3d_flags>  (137) 
0

>  <s_epik_input>  (137) 
W0NIM11DKD1PKU9bQ0BdKEMjW0NIXSkoW0NIMl1bQ0gyXTEpW0NAQF0oW0NIM10pKFtDSDJdW0NAQEhdKFtDQEhdMjMpW09IXSlbQ0BIXTFbQ0BIXTJbQ0gyXVtDSF09QyhbQ0BdMzRbQ0gzXSlbQ0gyXUMoPU8pW0NIMl1bQ0gyXTQ=

>  <s_epik_cmdline>  (137) 
J2VwaWtfcHl0aG9uJywgJy1waHQnLCAnMi4wJywgJy1waCcsICc3LjAnLCAnLXRuJywgJzgnLCAnLW1hJywgJzIwMCcsICctaW1hZScsICc8aW5maWxlLm1hZT4nLCAnLW9tYWUnLCAnPG91dGZpbGUubWFlPic=

>  <r_lp_tautomer_probability>  (137) 
1

>  <r_epik_Ionization_Penalty>  (137) 
2.38571e-07

>  <r_epik_Ionization_Penalty_Charging>  (137) 
0

>  <r_epik_Ionization_Penalty_Neutral>  (137) 
2.38571e-07

>  <r_epik_State_Penalty>  (137) 
-0

>  <r_epik_Charging_Adjusted_Penalty>  (137) 
0

>  <i_epik_Tot_Q>  (137) 
0

>  <i_epik_Tot_abs_Q>  (137) 
0

>  <s_epik_Chemistry_Notes>  (137) 
This compound has an ester and may undergo hydrolysis at high or low pH.

>  <s_lp_Force_Field>  (137) 
OPLS3e

>  <r_lp_Energy>  (137) 
44.8166

>  <b_lp_Chiralities_Consistent>  (137) 
1

>  <s_lp_Variant>  (137) 
46:0-1

>  <s_i_glide_gridfile>  (137) 
pfpi4k_grid

>  <i_i_glide_lignum>  (137) 
5

>  <i_i_glide_rotatable_bonds>  (137) 
4

>  <r_i_docking_score>  (137) 
-3.77344

>  <r_i_glide_ligand_efficiency>  (137) 
-0.139757

>  <r_i_glide_ligand_efficiency_sa>  (137) 
-0.419271

>  <r_i_glide_ligand_efficiency_ln>  (137) 
-0.878394

>  <r_i_glide_gscore>  (137) 
-3.77344

>  <r_i_glide_lipo>  (137) 
-0.496537

>  <r_i_glide_hbond>  (137) 
-0.43976

>  <r_i_glide_metal>  (137) 
-0

>  <r_i_glide_rewards>  (137) 
-0.944889

>  <r_i_glide_evdw>  (137) 
-23.8862

>  <r_i_glide_ecoul>  (137) 
-6.52707

>  <r_i_glide_erotb>  (137) 
0.281116

>  <r_i_glide_esite>  (137) 
0

>  <r_i_glide_emodel>  (137) 
-36.7949

>  <r_i_glide_energy>  (137) 
-30.4132

>  <r_i_glide_einternal>  (137) 
1.25583

>  <r_i_glide_intrahb_reward>  (137) 
-0

>  <i_i_glide_confnum>  (137) 
2

>  <i_i_glide_posenum>  (137) 
34

>  <r_i_glide_eff_state_penalty>  (137) 
0

>  <ligand_id>  (137) 
46

>  <original_smiles>  (137) 
C#CC1(OC(C)=O)CCC2C3CC=C4CC(=O)CCC4(C)C3C(O)CC21C

>  <smiles>  (137) 
[H]C#CC1(OC(=O)C([H])([H])[H])C([H])([H])C([H])([H])C2([H])C3([H])C([H])([H])C([H])=C4C([H])([H])C(=O)C([H])([H])C([H])([H])C4(C([H])([H])[H])C3([H])C([H])(O[H])C([H])([H])C12C([H])([H])[H]

$$$$
46:0:2
     RDKit          3D

 57 60  0  0  1  0  0  0  0  0999 V2000
    4.2413   -0.2546   -2.6533 C   0  0  0  0  0  0  0  0  0  0  0  0
    4.3369   -1.1801   -1.8670 C   0  0  0  0  0  0  0  0  0  0  0  0
    4.4049   -2.3401   -0.9518 C   0  0  1  0  0  0  0  0  0  0  0  0
    3.0949   -2.9255   -0.8009 O   0  0  0  0  0  0  0  0  0  0  0  0
    2.2840   -3.4490   -1.8070 C   0  0  0  0  0  0  0  0  0  0  0  0
    2.5697   -3.1003   -3.2574 C   0  0  0  0  0  0  0  0  0  0  0  0
    1.2741   -4.0946   -1.5156 O   0  0  0  0  0  0  0  0  0  0  0  0
    5.4093   -3.4197   -1.4049 C   0  0  0  0  0  0  0  0  0  0  0  0
    5.7675   -4.2090   -0.1431 C   0  0  0  0  0  0  0  0  0  0  0  0
    5.4055   -3.3361    1.0842 C   0  0  2  0  0  0  0  0  0  0  0  0
    4.4091   -4.0706    2.0407 C   0  0  1  0  0  0  0  0  0  0  0  0
    5.1846   -5.1956    2.7640 C   0  0  0  0  0  0  0  0  0  0  0  0
    4.5069   -5.7411    3.9823 C   0  0  0  0  0  0  0  0  0  0  0  0
    3.4246   -5.1931    4.5823 C   0  0  0  0  0  0  0  0  0  0  0  0
    2.7990   -5.9031    5.7740 C   0  0  0  0  0  0  0  0  0  0  0  0
    2.4796   -4.9417    6.9022 C   0  0  0  0  0  0  0  0  0  0  0  0
    2.7383   -5.2063    8.0847 O   0  0  0  0  0  0  0  0  0  0  0  0
    1.7961   -3.6473    6.5129 C   0  0  0  0  0  0  0  0  0  0  0  0
    2.5286   -2.9772    5.3362 C   0  0  0  0  0  0  0  0  0  0  0  0
    2.7674   -3.8917    4.0885 C   0  0  2  0  0  0  0  0  0  0  0  0
    1.4125   -4.2897    3.4580 C   0  0  0  0  0  0  0  0  0  0  0  0
    3.6701   -3.1290    3.0350 C   0  0  2  0  0  0  0  0  0  0  0  0
    2.9501   -2.0531    2.1639 C   0  0  1  0  0  0  0  0  0  0  0  0
    2.2063   -1.1173    2.9109 O   0  0  0  0  0  0  0  0  0  0  0  0
    3.9678   -1.2025    1.3869 C   0  0  0  0  0  0  0  0  0  0  0  0
    4.9545   -1.9774    0.4808 C   0  0  2  0  0  0  0  0  0  0  0  0
    6.2245   -1.0745    0.3912 C   0  0  0  0  0  0  0  0  0  0  0  0
    4.1289    0.5416   -3.3571 H   0  0  0  0  0  0  0  0  0  0  0  0
    2.5755   -2.0145   -3.3741 H   0  0  0  0  0  0  0  0  0  0  0  0
    1.8092   -3.5696   -3.8769 H   0  0  0  0  0  0  0  0  0  0  0  0
    3.5302   -3.5296   -3.5491 H   0  0  0  0  0  0  0  0  0  0  0  0
    5.0163   -4.0922   -2.1656 H   0  0  0  0  0  0  0  0  0  0  0  0
    6.3121   -2.9656   -1.8270 H   0  0  0  0  0  0  0  0  0  0  0  0
    5.2101   -5.1475   -0.1510 H   0  0  0  0  0  0  0  0  0  0  0  0
    6.8245   -4.4721   -0.1552 H   0  0  0  0  0  0  0  0  0  0  0  0
    6.3214   -3.1630    1.6546 H   0  0  0  0  0  0  0  0  0  0  0  0
    3.6287   -4.5407    1.4379 H   0  0  0  0  0  0  0  0  0  0  0  0
    5.3315   -6.0303    2.0758 H   0  0  0  0  0  0  0  0  0  0  0  0
    6.1774   -4.8585    3.0729 H   0  0  0  0  0  0  0  0  0  0  0  0
    4.9333   -6.6472    4.3869 H   0  0  0  0  0  0  0  0  0  0  0  0
    1.8733   -6.3882    5.4735 H   0  0  0  0  0  0  0  0  0  0  0  0
    3.4595   -6.6850    6.1440 H   0  0  0  0  0  0  0  0  0  0  0  0
    0.7669   -3.8788    6.2443 H   0  0  0  0  0  0  0  0  0  0  0  0
    1.7544   -2.9783    7.3705 H   0  0  0  0  0  0  0  0  0  0  0  0
    1.9574   -2.0849    5.0852 H   0  0  0  0  0  0  0  0  0  0  0  0
    3.4884   -2.6153    5.7095 H   0  0  0  0  0  0  0  0  0  0  0  0
    0.8180   -3.4147    3.1844 H   0  0  0  0  0  0  0  0  0  0  0  0
    0.8004   -4.8833    4.1391 H   0  0  0  0  0  0  0  0  0  0  0  0
    1.5697   -4.8919    2.5600 H   0  0  0  0  0  0  0  0  0  0  0  0
    4.4443   -2.6129    3.5996 H   0  0  0  0  0  0  0  0  0  0  0  0
    2.2508   -2.5334    1.4820 H   0  0  0  0  0  0  0  0  0  0  0  0
    1.7290   -0.5668    2.2974 H   0  0  0  0  0  0  0  0  0  0  0  0
    3.4286   -0.4711    0.7850 H   0  0  0  0  0  0  0  0  0  0  0  0
    4.5228   -0.6089    2.1184 H   0  0  0  0  0  0  0  0  0  0  0  0
    6.6867   -0.9199    1.3747 H   0  0  0  0  0  0  0  0  0  0  0  0
    5.9860   -0.0791    0.0099 H   0  0  0  0  0  0  0  0  0  0  0  0
    6.9856   -1.5127   -0.2600 H   0  0  0  0  0  0  0  0  0  0  0  0
  1  2  3  0
  1 28  1  0
  3  2  1  6
  3 26  1  0
  3  4  1  0
  3  8  1  0
  4  5  1  0
  5  6  1  0
  5  7  2  0
  6 29  1  0
  6 30  1  0
  6 31  1  0
  8  9  1  0
  8 32  1  0
  8 33  1  0
  9 10  1  0
  9 34  1  0
  9 35  1  0
 10 26  1  0
 10 11  1  0
 10 36  1  1
 11 22  1  0
 11 12  1  0
 11 37  1  6
 12 13  1  0
 12 38  1  0
 12 39  1  0
 13 14  2  0
 13 40  1  0
 14 20  1  0
 14 15  1  0
 15 16  1  0
 15 41  1  0
 15 42  1  0
 16 17  2  0
 16 18  1  0
 18 19  1  0
 18 43  1  0
 18 44  1  0
 19 20  1  0
 19 45  1  0
 19 46  1  0
 20 21  1  6
 20 22  1  0
 21 47  1  0
 21 48  1  0
 21 49  1  0
 22 23  1  0
 22 50  1  1
 23 24  1  0
 23 25  1  0
 23 51  1  6
 24 52  1  0
 25 26  1  0
 25 53  1  0
 25 54  1  0
 26 27  1  6
 27 55  1  0
 27 56  1  0
 27 57  1  0
M  END
>  <i_m_ct_stereo_status>  (138) 
1

>  <s_m_source_file>  (138) 
/var/tmp/pbs.5083858.sched01/tmpsrgifhn0/551fl8t6n1.sdf

>  <i_m_source_file_index>  (138) 
5

>  <i_lp_mmshare_version>  (138) 
48012

>  <i_f3d_flags>  (138) 
0

>  <s_epik_input>  (138) 
W0NIM11DKD1PKU9bQ0BdKEMjW0NIXSkoW0NIMl1bQ0gyXTEpW0NAQF0oW0NIM10pKFtDSDJdW0NAQEhdKFtDQEhdMjMpW09IXSlbQ0BIXTFbQ0BIXTJbQ0gyXVtDSF09QyhbQ0BdMzRbQ0gzXSlbQ0gyXUMoPU8pW0NIMl1bQ0gyXTQ=

>  <s_epik_cmdline>  (138) 
J2VwaWtfcHl0aG9uJywgJy1waHQnLCAnMi4wJywgJy1waCcsICc3LjAnLCAnLXRuJywgJzgnLCAnLW1hJywgJzIwMCcsICctaW1hZScsICc8aW5maWxlLm1hZT4nLCAnLW9tYWUnLCAnPG91dGZpbGUubWFlPic=

>  <r_lp_tautomer_probability>  (138) 
1

>  <r_epik_Ionization_Penalty>  (138) 
2.38571e-07

>  <r_epik_Ionization_Penalty_Charging>  (138) 
0

>  <r_epik_Ionization_Penalty_Neutral>  (138) 
2.38571e-07

>  <r_epik_State_Penalty>  (138) 
-0

>  <r_epik_Charging_Adjusted_Penalty>  (138) 
0

>  <i_epik_Tot_Q>  (138) 
0

>  <i_epik_Tot_abs_Q>  (138) 
0

>  <s_epik_Chemistry_Notes>  (138) 
This compound has an ester and may undergo hydrolysis at high or low pH.

>  <s_lp_Force_Field>  (138) 
OPLS3e

>  <r_lp_Energy>  (138) 
44.8166

>  <b_lp_Chiralities_Consistent>  (138) 
1

>  <s_lp_Variant>  (138) 
46:0-1

>  <s_i_glide_gridfile>  (138) 
pfpi4k_grid

>  <i_i_glide_lignum>  (138) 
5

>  <i_i_glide_rotatable_bonds>  (138) 
4

>  <r_i_docking_score>  (138) 
-2.87621

>  <r_i_glide_ligand_efficiency>  (138) 
-0.106526

>  <r_i_glide_ligand_efficiency_sa>  (138) 
-0.319579

>  <r_i_glide_ligand_efficiency_ln>  (138) 
-0.669534

>  <r_i_glide_gscore>  (138) 
-2.87621

>  <r_i_glide_lipo>  (138) 
-0.654827

>  <r_i_glide_hbond>  (138) 
-0.00751299

>  <r_i_glide_metal>  (138) 
-0

>  <r_i_glide_rewards>  (138) 
-1.09022

>  <r_i_glide_evdw>  (138) 
-25.3402

>  <r_i_glide_ecoul>  (138) 
-0.918341

>  <r_i_glide_erotb>  (138) 
0.281116

>  <r_i_glide_esite>  (138) 
0

>  <r_i_glide_emodel>  (138) 
-28.3536

>  <r_i_glide_energy>  (138) 
-26.2585

>  <r_i_glide_einternal>  (138) 
5.97621

>  <r_i_glide_intrahb_reward>  (138) 
-0

>  <i_i_glide_confnum>  (138) 
3

>  <i_i_glide_posenum>  (138) 
37

>  <r_i_glide_eff_state_penalty>  (138) 
0

>  <ligand_id>  (138) 
46

>  <original_smiles>  (138) 
C#CC1(OC(C)=O)CCC2C3CC=C4CC(=O)CCC4(C)C3C(O)CC21C

>  <smiles>  (138) 
[H]C#CC1(OC(=O)C([H])([H])[H])C([H])([H])C([H])([H])C2([H])C3([H])C([H])([H])C([H])=C4C([H])([H])C(=O)C([H])([H])C([H])([H])C4(C([H])([H])[H])C3([H])C([H])(O[H])C([H])([H])C12C([H])([H])[H]

$$$$
47:0:0
     RDKit          3D

 69 73  0  0  1  0  0  0  0  0999 V2000
   -0.9619    2.5629    8.6334 C   0  0  0  0  0  0  0  0  0  0  0  0
   -0.8528    2.9461    7.1375 C   0  0  2  0  0  0  0  0  0  0  0  0
   -2.1772    2.5147    6.4370 C   0  0  0  0  0  0  0  0  0  0  0  0
   -2.4840    3.1261    5.0511 C   0  0  0  0  0  0  0  0  0  0  0  0
   -1.3518    3.3660    4.0014 C   0  0  2  0  0  0  0  0  0  0  0  0
   -2.0314    4.3011    2.9648 C   0  0  0  0  0  0  0  0  0  0  0  0
   -1.0274    2.0807    3.1601 C   0  0  0  0  0  0  0  0  0  0  0  0
   -0.4349    0.9686    3.8263 O   0  0  0  0  0  0  0  0  0  0  0  0
    0.9963    0.7864    3.8277 C   0  0  2  0  0  0  0  0  0  0  0  0
    1.3748    0.0676    2.4842 C   0  0  1  0  0  0  0  0  0  0  0  0
    2.6517    0.1986    1.8946 O   0  0  0  0  0  0  0  0  0  0  0  0
    1.1830   -1.2755    3.1431 C   0  0  0  0  0  0  0  0  0  0  0  0
    1.2750   -0.6212    4.5336 C   0  0  2  0  0  0  0  0  0  0  0  0
    0.5178   -1.4015    5.6896 C   0  0  0  0  0  0  0  0  0  0  0  0
   -0.9339   -1.7634    5.2818 C   0  0  0  0  0  0  0  0  0  0  0  0
    1.2713   -2.7508    5.8516 C   0  0  0  0  0  0  0  0  0  0  0  0
    0.3949   -0.7137    7.1016 C   0  0  1  0  0  0  0  0  0  0  0  0
    0.2104   -1.6551    8.1455 O   0  0  0  0  0  0  0  0  0  0  0  0
    1.4625    0.2824    7.5265 C   0  0  0  0  0  0  0  0  0  0  0  0
    1.3753    1.6084    7.3206 C   0  0  0  0  0  0  0  0  0  0  0  0
    0.3345    2.2510    6.4215 C   0  0  2  0  0  0  0  0  0  0  0  0
    0.9715    3.0556    5.2504 C   0  0  1  0  0  0  0  0  0  0  0  0
    1.7730    2.1240    4.2234 C   0  0  0  0  0  0  0  0  0  0  0  0
    3.1799    1.7926    4.8078 C   0  0  0  0  0  0  0  0  0  0  0  0
    2.2063    2.9427    2.9730 C   0  0  0  0  0  0  0  0  0  0  0  0
   -0.1027    4.0671    4.6718 C   0  0  1  0  0  0  0  0  0  0  0  0
    0.5199    5.2449    3.8701 C   0  0  0  0  0  0  0  0  0  0  0  0
   -0.6145    4.9178    5.7112 O   0  0  0  0  0  0  0  0  0  0  0  0
   -0.6486    4.4595    7.0525 C   0  0  0  0  0  0  0  0  0  0  0  0
   -1.8137    3.0534    9.1080 H   0  0  0  0  0  0  0  0  0  0  0  0
   -0.0758    2.8727    9.1892 H   0  0  0  0  0  0  0  0  0  0  0  0
   -1.0868    1.4890    8.7725 H   0  0  0  0  0  0  0  0  0  0  0  0
   -2.2303    1.4277    6.3633 H   0  0  0  0  0  0  0  0  0  0  0  0
   -3.0154    2.7787    7.0866 H   0  0  0  0  0  0  0  0  0  0  0  0
   -3.2834    2.5532    4.5808 H   0  0  0  0  0  0  0  0  0  0  0  0
   -2.9350    4.0913    5.2777 H   0  0  0  0  0  0  0  0  0  0  0  0
   -1.3927    4.4824    2.1071 H   0  0  0  0  0  0  0  0  0  0  0  0
   -2.2681    5.2780    3.3630 H   0  0  0  0  0  0  0  0  0  0  0  0
   -2.9591    3.8772    2.5745 H   0  0  0  0  0  0  0  0  0  0  0  0
   -1.9835    1.6888    2.8145 H   0  0  0  0  0  0  0  0  0  0  0  0
   -0.5047    2.3033    2.2326 H   0  0  0  0  0  0  0  0  0  0  0  0
    0.6291    0.2370    1.7073 H   0  0  0  0  0  0  0  0  0  0  0  0
    2.5541   -0.0922    0.9968 H   0  0  0  0  0  0  0  0  0  0  0  0
    0.2128   -1.6881    2.8763 H   0  0  0  0  0  0  0  0  0  0  0  0
    1.9849   -1.9882    2.9404 H   0  0  0  0  0  0  0  0  0  0  0  0
    2.3398   -0.6404    4.7666 H   0  0  0  0  0  0  0  0  0  0  0  0
   -1.4673   -2.2536    6.0981 H   0  0  0  0  0  0  0  0  0  0  0  0
   -0.9688   -2.4655    4.4522 H   0  0  0  0  0  0  0  0  0  0  0  0
   -1.5123   -0.8825    5.0050 H   0  0  0  0  0  0  0  0  0  0  0  0
    0.7520   -3.4523    6.5059 H   0  0  0  0  0  0  0  0  0  0  0  0
    2.2722   -2.6007    6.2545 H   0  0  0  0  0  0  0  0  0  0  0  0
    1.3796   -3.2709    4.9017 H   0  0  0  0  0  0  0  0  0  0  0  0
   -0.5573   -0.1876    7.1378 H   0  0  0  0  0  0  0  0  0  0  0  0
    1.0160   -2.1339    8.2545 H   0  0  0  0  0  0  0  0  0  0  0  0
    2.2886   -0.1013    8.1040 H   0  0  0  0  0  0  0  0  0  0  0  0
    2.1389    2.2618    7.7106 H   0  0  0  0  0  0  0  0  0  0  0  0
   -0.1433    1.4148    5.9611 H   0  0  0  0  0  0  0  0  0  0  0  0
    1.7201    3.7045    5.7081 H   0  0  0  0  0  0  0  0  0  0  0  0
    3.7260    2.6995    5.0750 H   0  0  0  0  0  0  0  0  0  0  0  0
    3.7973    1.2604    4.0837 H   0  0  0  0  0  0  0  0  0  0  0  0
    3.1786    1.1578    5.6850 H   0  0  0  0  0  0  0  0  0  0  0  0
    2.6270    3.9082    3.2518 H   0  0  0  0  0  0  0  0  0  0  0  0
    1.4168    3.0928    2.2471 H   0  0  0  0  0  0  0  0  0  0  0  0
    3.0149    2.4865    2.4125 H   0  0  0  0  0  0  0  0  0  0  0  0
    0.7208    5.0146    2.8341 H   0  0  0  0  0  0  0  0  0  0  0  0
    1.4545    5.5764    4.3230 H   0  0  0  0  0  0  0  0  0  0  0  0
   -0.1289    6.1212    3.8405 H   0  0  0  0  0  0  0  0  0  0  0  0
   -1.4500    4.9872    7.5701 H   0  0  0  0  0  0  0  0  0  0  0  0
    0.2808    4.7451    7.5436 H   0  0  0  0  0  0  0  0  0  0  0  0
  2  1  1  1
  1 30  1  0
  1 31  1  0
  1 32  1  0
  2 21  1  0
  2 29  1  0
  2  3  1  0
  3  4  1  0
  3 33  1  0
  3 34  1  0
  4  5  1  0
  4 35  1  0
  4 36  1  0
  5 26  1  0
  5  6  1  6
  5  7  1  0
  6 37  1  0
  6 38  1  0
  6 39  1  0
  7  8  1  0
  7 40  1  0
  7 41  1  0
  9  8  1  6
  9 13  1  0
  9 23  1  0
  9 10  1  0
 10 11  1  0
 10 12  1  0
 10 42  1  6
 11 43  1  0
 12 13  1  0
 12 44  1  0
 12 45  1  0
 13 14  1  0
 13 46  1  1
 14 15  1  0
 14 16  1  0
 14 17  1  0
 15 47  1  0
 15 48  1  0
 15 49  1  0
 16 50  1  0
 16 51  1  0
 16 52  1  0
 17 18  1  0
 17 19  1  0
 17 53  1  6
 18 54  1  0
 19 20  2  3
 19 55  1  0
 20 21  1  0
 20 56  1  0
 21 22  1  0
 21 57  1  6
 22 23  1  0
 22 26  1  0
 22 58  1  1
 23 24  1  0
 23 25  1  0
 24 59  1  0
 24 60  1  0
 24 61  1  0
 25 62  1  0
 25 63  1  0
 25 64  1  0
 26 27  1  6
 26 28  1  0
 27 65  1  0
 27 66  1  0
 27 67  1  0
 28 29  1  0
 29 68  1  0
 29 69  1  0
M  END
>  <i_m_ct_stereo_status>  (139) 
1

>  <s_m_source_file>  (139) 
/var/tmp/pbs.5083858.sched01/tmp120am4xz/605xn5hpsi.sdf

>  <i_m_source_file_index>  (139) 
1

>  <i_lp_mmshare_version>  (139) 
48012

>  <i_f3d_flags>  (139) 
0

>  <s_epik_input>  (139) 
W0NIM11DMShbQ0gzXSlbQ0BIXTJbQ0BdKFtDSDNdKShPW0NIMl0zKVtDQEBdKFtDSDNdKShbQ0gyXU80KVtDSDJdW0NIMl1bQ0BAXTMoW0NIM10pW0NASF0yL1tDSF09W0NIXVxbQ0BIXShbT0hdKUMoW0NIM10pKFtDSDNdKVtDQEhdKFtDQF0xNDUpW0NIMl1bQ0BASF01W09IXQ==

>  <s_epik_cmdline>  (139) 
J2VwaWtfcHl0aG9uJywgJy1waHQnLCAnMi4wJywgJy1waCcsICc3LjAnLCAnLXRuJywgJzgnLCAnLW1hJywgJzIwMCcsICctaW1hZScsICc8aW5maWxlLm1hZT4nLCAnLW9tYWUnLCAnPG91dGZpbGUubWFlPic=

>  <r_lp_tautomer_probability>  (139) 
1

>  <r_epik_Ionization_Penalty>  (139) 
3.02398e-07

>  <r_epik_Ionization_Penalty_Charging>  (139) 
0

>  <r_epik_Ionization_Penalty_Neutral>  (139) 
3.02398e-07

>  <r_epik_State_Penalty>  (139) 
-0

>  <r_epik_Charging_Adjusted_Penalty>  (139) 
0

>  <i_epik_Tot_Q>  (139) 
0

>  <i_epik_Tot_abs_Q>  (139) 
0

>  <s_lp_Force_Field>  (139) 
OPLS3e

>  <r_lp_Energy>  (139) 
113.577

>  <b_lp_Chiralities_Consistent>  (139) 
1

>  <s_lp_Variant>  (139) 
47:0-1

>  <s_i_glide_gridfile>  (139) 
pfpi4k_grid

>  <i_i_glide_lignum>  (139) 
1

>  <i_i_glide_rotatable_bonds>  (139) 
2

>  <r_i_docking_score>  (139) 
-2.57365

>  <r_i_glide_ligand_efficiency>  (139) 
-0.0887465

>  <r_i_glide_ligand_efficiency_sa>  (139) 
-0.272657

>  <r_i_glide_ligand_efficiency_ln>  (139) 
-0.5893

>  <r_i_glide_gscore>  (139) 
-2.57365

>  <r_i_glide_lipo>  (139) 
-0.0885916

>  <r_i_glide_hbond>  (139) 
-0.0578248

>  <r_i_glide_metal>  (139) 
-0

>  <r_i_glide_rewards>  (139) 
-0.650572

>  <r_i_glide_evdw>  (139) 
-24.4094

>  <r_i_glide_ecoul>  (139) 
-3.70795

>  <r_i_glide_erotb>  (139) 
0

>  <r_i_glide_esite>  (139) 
0

>  <r_i_glide_emodel>  (139) 
-32.3045

>  <r_i_glide_energy>  (139) 
-28.1173

>  <r_i_glide_einternal>  (139) 
1.31556

>  <r_i_glide_intrahb_reward>  (139) 
-0

>  <i_i_glide_confnum>  (139) 
1

>  <i_i_glide_posenum>  (139) 
18

>  <r_i_glide_eff_state_penalty>  (139) 
0

>  <ligand_id>  (139) 
47

>  <original_smiles>  (139) 
CC12CCC3(C)COC45C(O)CC4C(C)(C)C(O)C=CC1C(C5(C)C)C3(C)OC2

>  <smiles>  (139) 
[H]OC1([H])C([H])=C([H])C2([H])C3([H])C4(C([H])([H])[H])OC([H])([H])C2(C([H])([H])[H])C([H])([H])C([H])([H])C4(C([H])([H])[H])C([H])([H])OC2(C([H])(O[H])C([H])([H])C2([H])C1(C([H])([H])[H])C([H])([H])[H])C3(C([H])([H])[H])C([H])([H])[H]

$$$$
47:0:1
     RDKit          3D

 69 73  0  0  1  0  0  0  0  0999 V2000
   -0.9643    2.5558    8.6634 C   0  0  0  0  0  0  0  0  0  0  0  0
   -0.8554    2.9405    7.1670 C   0  0  2  0  0  0  0  0  0  0  0  0
   -2.1791    2.5109    6.4658 C   0  0  0  0  0  0  0  0  0  0  0  0
   -2.4832    3.1223    5.0790 C   0  0  0  0  0  0  0  0  0  0  0  0
   -1.3521    3.3637    4.0308 C   0  0  2  0  0  0  0  0  0  0  0  0
   -2.0313    4.2980    2.9958 C   0  0  0  0  0  0  0  0  0  0  0  0
   -1.0257    2.0807    3.1867 C   0  0  0  0  0  0  0  0  0  0  0  0
   -0.4358    0.9684    3.8535 O   0  0  0  0  0  0  0  0  0  0  0  0
    0.9943    0.7872    3.8585 C   0  0  2  0  0  0  0  0  0  0  0  0
    1.3758    0.0695    2.5162 C   0  0  1  0  0  0  0  0  0  0  0  0
    2.6577    0.2122    1.9411 O   0  0  0  0  0  0  0  0  0  0  0  0
    1.1872   -1.2757    3.1686 C   0  0  0  0  0  0  0  0  0  0  0  0
    1.2756   -0.6219    4.5621 C   0  0  2  0  0  0  0  0  0  0  0  0
    0.5181   -1.4044    5.7144 C   0  0  0  0  0  0  0  0  0  0  0  0
   -0.9339   -1.7670    5.3045 C   0  0  0  0  0  0  0  0  0  0  0  0
    1.2713   -2.7544    5.8762 C   0  0  0  0  0  0  0  0  0  0  0  0
    0.3945   -0.7198    7.1281 C   0  0  1  0  0  0  0  0  0  0  0  0
    0.2105   -1.6606    8.1719 O   0  0  0  0  0  0  0  0  0  0  0  0
    1.4606    0.2774    7.5545 C   0  0  0  0  0  0  0  0  0  0  0  0
    1.3740    1.6032    7.3493 C   0  0  0  0  0  0  0  0  0  0  0  0
    0.3330    2.2459    6.4505 C   0  0  2  0  0  0  0  0  0  0  0  0
    0.9705    3.0534    5.2822 C   0  0  1  0  0  0  0  0  0  0  0  0
    1.7720    2.1234    4.2556 C   0  0  0  0  0  0  0  0  0  0  0  0
    3.1804    1.7932    4.8391 C   0  0  0  0  0  0  0  0  0  0  0  0
    2.2067    2.9470    3.0050 C   0  0  0  0  0  0  0  0  0  0  0  0
   -0.1029    4.0644    4.7036 C   0  0  1  0  0  0  0  0  0  0  0  0
    0.5177    5.2430    3.9033 C   0  0  0  0  0  0  0  0  0  0  0  0
   -0.6167    4.9147    5.7434 O   0  0  0  0  0  0  0  0  0  0  0  0
   -0.6514    4.4541    7.0847 C   0  0  0  0  0  0  0  0  0  0  0  0
   -1.8153    3.0459    9.1395 H   0  0  0  0  0  0  0  0  0  0  0  0
   -0.0775    2.8635    9.2199 H   0  0  0  0  0  0  0  0  0  0  0  0
   -1.0895    1.4818    8.8011 H   0  0  0  0  0  0  0  0  0  0  0  0
   -2.2318    1.4236    6.3925 H   0  0  0  0  0  0  0  0  0  0  0  0
   -3.0165    2.7744    7.1140 H   0  0  0  0  0  0  0  0  0  0  0  0
   -3.2817    2.5505    4.6067 H   0  0  0  0  0  0  0  0  0  0  0  0
   -2.9412    4.0854    5.3006 H   0  0  0  0  0  0  0  0  0  0  0  0
   -1.3919    4.4862    2.1393 H   0  0  0  0  0  0  0  0  0  0  0  0
   -2.2706    5.2701    3.3997 H   0  0  0  0  0  0  0  0  0  0  0  0
   -2.9612    3.8762    2.6079 H   0  0  0  0  0  0  0  0  0  0  0  0
   -1.9818    1.6873    2.8427 H   0  0  0  0  0  0  0  0  0  0  0  0
   -0.5046    2.3040    2.2594 H   0  0  0  0  0  0  0  0  0  0  0  0
    0.6311    0.2219    1.7346 H   0  0  0  0  0  0  0  0  0  0  0  0
    2.5862    0.9037    1.2994 H   0  0  0  0  0  0  0  0  0  0  0  0
    0.2181   -1.6878    2.8950 H   0  0  0  0  0  0  0  0  0  0  0  0
    1.9919   -1.9845    2.9643 H   0  0  0  0  0  0  0  0  0  0  0  0
    2.3396   -0.6389    4.7978 H   0  0  0  0  0  0  0  0  0  0  0  0
   -1.4679   -2.2570    6.1194 H   0  0  0  0  0  0  0  0  0  0  0  0
   -0.9678   -2.4678    4.4742 H   0  0  0  0  0  0  0  0  0  0  0  0
   -1.5118   -0.8862    5.0256 H   0  0  0  0  0  0  0  0  0  0  0  0
    0.7526   -3.4565    6.5293 H   0  0  0  0  0  0  0  0  0  0  0  0
    2.2720   -2.6042    6.2800 H   0  0  0  0  0  0  0  0  0  0  0  0
    1.3806   -3.2732    4.9252 H   0  0  0  0  0  0  0  0  0  0  0  0
   -0.5576   -0.1955    7.1658 H   0  0  0  0  0  0  0  0  0  0  0  0
    1.0257   -2.1257    8.2930 H   0  0  0  0  0  0  0  0  0  0  0  0
    2.2870   -0.1062    8.1327 H   0  0  0  0  0  0  0  0  0  0  0  0
    2.1365    2.2579    7.7408 H   0  0  0  0  0  0  0  0  0  0  0  0
   -0.1441    1.4104    5.9908 H   0  0  0  0  0  0  0  0  0  0  0  0
    1.7181    3.7005    5.7400 H   0  0  0  0  0  0  0  0  0  0  0  0
    3.7270    2.6993    5.1051 H   0  0  0  0  0  0  0  0  0  0  0  0
    3.7987    1.2589    4.1159 H   0  0  0  0  0  0  0  0  0  0  0  0
    3.1796    1.1591    5.7168 H   0  0  0  0  0  0  0  0  0  0  0  0
    2.6238    3.9125    3.2877 H   0  0  0  0  0  0  0  0  0  0  0  0
    1.4140    3.0979    2.2805 H   0  0  0  0  0  0  0  0  0  0  0  0
    3.0179    2.4986    2.4456 H   0  0  0  0  0  0  0  0  0  0  0  0
    0.7129    5.0135    2.8658 H   0  0  0  0  0  0  0  0  0  0  0  0
    1.4554    5.5714    4.3533 H   0  0  0  0  0  0  0  0  0  0  0  0
   -0.1276    6.1228    3.8770 H   0  0  0  0  0  0  0  0  0  0  0  0
   -1.4534    4.9815    7.6018 H   0  0  0  0  0  0  0  0  0  0  0  0
    0.2773    4.7386    7.5780 H   0  0  0  0  0  0  0  0  0  0  0  0
  2  1  1  1
  1 30  1  0
  1 31  1  0
  1 32  1  0
  2 21  1  0
  2 29  1  0
  2  3  1  0
  3  4  1  0
  3 33  1  0
  3 34  1  0
  4  5  1  0
  4 35  1  0
  4 36  1  0
  5 26  1  0
  5  6  1  6
  5  7  1  0
  6 37  1  0
  6 38  1  0
  6 39  1  0
  7  8  1  0
  7 40  1  0
  7 41  1  0
  9  8  1  6
  9 13  1  0
  9 23  1  0
  9 10  1  0
 10 11  1  0
 10 12  1  0
 10 42  1  6
 11 43  1  0
 12 13  1  0
 12 44  1  0
 12 45  1  0
 13 14  1  0
 13 46  1  1
 14 15  1  0
 14 16  1  0
 14 17  1  0
 15 47  1  0
 15 48  1  0
 15 49  1  0
 16 50  1  0
 16 51  1  0
 16 52  1  0
 17 18  1  0
 17 19  1  0
 17 53  1  6
 18 54  1  0
 19 20  2  3
 19 55  1  0
 20 21  1  0
 20 56  1  0
 21 22  1  0
 21 57  1  6
 22 23  1  0
 22 26  1  0
 22 58  1  1
 23 24  1  0
 23 25  1  0
 24 59  1  0
 24 60  1  0
 24 61  1  0
 25 62  1  0
 25 63  1  0
 25 64  1  0
 26 27  1  6
 26 28  1  0
 27 65  1  0
 27 66  1  0
 27 67  1  0
 28 29  1  0
 29 68  1  0
 29 69  1  0
M  END
>  <i_m_ct_stereo_status>  (140) 
1

>  <s_m_source_file>  (140) 
/var/tmp/pbs.5083858.sched01/tmp120am4xz/605xn5hpsi.sdf

>  <i_m_source_file_index>  (140) 
1

>  <i_lp_mmshare_version>  (140) 
48012

>  <i_f3d_flags>  (140) 
0

>  <s_epik_input>  (140) 
W0NIM11DMShbQ0gzXSlbQ0BIXTJbQ0BdKFtDSDNdKShPW0NIMl0zKVtDQEBdKFtDSDNdKShbQ0gyXU80KVtDSDJdW0NIMl1bQ0BAXTMoW0NIM10pW0NASF0yL1tDSF09W0NIXVxbQ0BIXShbT0hdKUMoW0NIM10pKFtDSDNdKVtDQEhdKFtDQF0xNDUpW0NIMl1bQ0BASF01W09IXQ==

>  <s_epik_cmdline>  (140) 
J2VwaWtfcHl0aG9uJywgJy1waHQnLCAnMi4wJywgJy1waCcsICc3LjAnLCAnLXRuJywgJzgnLCAnLW1hJywgJzIwMCcsICctaW1hZScsICc8aW5maWxlLm1hZT4nLCAnLW9tYWUnLCAnPG91dGZpbGUubWFlPic=

>  <r_lp_tautomer_probability>  (140) 
1

>  <r_epik_Ionization_Penalty>  (140) 
3.02398e-07

>  <r_epik_Ionization_Penalty_Charging>  (140) 
0

>  <r_epik_Ionization_Penalty_Neutral>  (140) 
3.02398e-07

>  <r_epik_State_Penalty>  (140) 
-0

>  <r_epik_Charging_Adjusted_Penalty>  (140) 
0

>  <i_epik_Tot_Q>  (140) 
0

>  <i_epik_Tot_abs_Q>  (140) 
0

>  <s_lp_Force_Field>  (140) 
OPLS3e

>  <r_lp_Energy>  (140) 
113.577

>  <b_lp_Chiralities_Consistent>  (140) 
1

>  <s_lp_Variant>  (140) 
47:0-1

>  <s_i_glide_gridfile>  (140) 
pfpi4k_grid

>  <i_i_glide_lignum>  (140) 
1

>  <i_i_glide_rotatable_bonds>  (140) 
2

>  <r_i_docking_score>  (140) 
-2.40843

>  <r_i_glide_ligand_efficiency>  (140) 
-0.0830492

>  <r_i_glide_ligand_efficiency_sa>  (140) 
-0.255153

>  <r_i_glide_ligand_efficiency_ln>  (140) 
-0.551468

>  <r_i_glide_gscore>  (140) 
-2.40843

>  <r_i_glide_lipo>  (140) 
-0.0870512

>  <r_i_glide_hbond>  (140) 
-0.061059

>  <r_i_glide_metal>  (140) 
-0

>  <r_i_glide_rewards>  (140) 
-0.650572

>  <r_i_glide_evdw>  (140) 
-24.4729

>  <r_i_glide_ecoul>  (140) 
-2.57397

>  <r_i_glide_erotb>  (140) 
0

>  <r_i_glide_esite>  (140) 
0

>  <r_i_glide_emodel>  (140) 
-30.9398

>  <r_i_glide_energy>  (140) 
-27.0469

>  <r_i_glide_einternal>  (140) 
1.31429

>  <r_i_glide_intrahb_reward>  (140) 
-0

>  <i_i_glide_confnum>  (140) 
2

>  <i_i_glide_posenum>  (140) 
26

>  <r_i_glide_eff_state_penalty>  (140) 
0

>  <ligand_id>  (140) 
47

>  <original_smiles>  (140) 
CC12CCC3(C)COC45C(O)CC4C(C)(C)C(O)C=CC1C(C5(C)C)C3(C)OC2

>  <smiles>  (140) 
[H]OC1([H])C([H])=C([H])C2([H])C3([H])C4(C([H])([H])[H])OC([H])([H])C2(C([H])([H])[H])C([H])([H])C([H])([H])C4(C([H])([H])[H])C([H])([H])OC2(C([H])(O[H])C([H])([H])C2([H])C1(C([H])([H])[H])C([H])([H])[H])C3(C([H])([H])[H])C([H])([H])[H]

$$$$
47:0:2
     RDKit          3D

 69 73  0  0  1  0  0  0  0  0999 V2000
   -1.0075    2.2177    8.5051 C   0  0  0  0  0  0  0  0  0  0  0  0
   -0.8843    2.6997    7.0379 C   0  0  2  0  0  0  0  0  0  0  0  0
   -2.1542    2.2281    6.2690 C   0  0  0  0  0  0  0  0  0  0  0  0
   -2.4523    2.9185    4.9160 C   0  0  0  0  0  0  0  0  0  0  0  0
   -1.3156    3.2802    3.9165 C   0  0  2  0  0  0  0  0  0  0  0  0
   -2.0379    4.2319    2.9283 C   0  0  0  0  0  0  0  0  0  0  0  0
   -0.8922    2.0687    3.0112 C   0  0  0  0  0  0  0  0  0  0  0  0
   -0.2455    0.9611    3.6312 O   0  0  0  0  0  0  0  0  0  0  0  0
    1.1926    0.8746    3.6637 C   0  0  2  0  0  0  0  0  0  0  0  0
    1.6560    0.2696    2.2904 C   0  0  1  0  0  0  0  0  0  0  0  0
    2.9378    0.5396    1.7570 O   0  0  0  0  0  0  0  0  0  0  0  0
    1.5416   -1.1229    2.8581 C   0  0  0  0  0  0  0  0  0  0  0  0
    1.5475   -0.5541    4.2915 C   0  0  2  0  0  0  0  0  0  0  0  0
    0.8172   -1.4504    5.3758 C   0  0  0  0  0  0  0  0  0  0  0  0
   -0.5933   -1.8772    4.9031 C   0  0  0  0  0  0  0  0  0  0  0  0
    1.6534   -2.7554    5.4803 C   0  0  0  0  0  0  0  0  0  0  0  0
    0.6083   -0.8604    6.8224 C   0  0  1  0  0  0  0  0  0  0  0  0
    0.4568   -1.8715    7.8050 O   0  0  0  0  0  0  0  0  0  0  0  0
    1.5944    0.1752    7.3379 C   0  0  0  0  0  0  0  0  0  0  0  0
    1.4243    1.5027    7.2097 C   0  0  0  0  0  0  0  0  0  0  0  0
    0.3665    2.1300    6.3196 C   0  0  2  0  0  0  0  0  0  0  0  0
    0.9799    3.0451    5.2192 C   0  0  1  0  0  0  0  0  0  0  0  0
    1.8668    2.2305    4.1656 C   0  0  0  0  0  0  0  0  0  0  0  0
    3.2783    1.9595    4.7709 C   0  0  0  0  0  0  0  0  0  0  0  0
    2.2678    3.1558    2.9824 C   0  0  0  0  0  0  0  0  0  0  0  0
   -0.1375    4.0191    4.6628 C   0  0  1  0  0  0  0  0  0  0  0  0
    0.4228    5.2770    3.9365 C   0  0  0  0  0  0  0  0  0  0  0  0
   -0.7358    4.7684    5.7359 O   0  0  0  0  0  0  0  0  0  0  0  0
   -0.7831    4.2255    7.0476 C   0  0  0  0  0  0  0  0  0  0  0  0
   -1.9023    2.6205    8.9834 H   0  0  0  0  0  0  0  0  0  0  0  0
   -0.1598    2.5506    9.1061 H   0  0  0  0  0  0  0  0  0  0  0  0
   -1.0608    1.1316    8.5776 H   0  0  0  0  0  0  0  0  0  0  0  0
   -2.1368    1.1469    6.1270 H   0  0  0  0  0  0  0  0  0  0  0  0
   -3.0260    2.3964    6.9041 H   0  0  0  0  0  0  0  0  0  0  0  0
   -3.1905    2.3442    4.3627 H   0  0  0  0  0  0  0  0  0  0  0  0
   -2.9684    3.8363    5.1912 H   0  0  0  0  0  0  0  0  0  0  0  0
   -1.3980    4.5311    2.1037 H   0  0  0  0  0  0  0  0  0  0  0  0
   -2.3741    5.1424    3.4019 H   0  0  0  0  0  0  0  0  0  0  0  0
   -2.9181    3.7690    2.4795 H   0  0  0  0  0  0  0  0  0  0  0  0
   -1.8096    1.6339    2.6165 H   0  0  0  0  0  0  0  0  0  0  0  0
   -0.3652    2.3791    2.1146 H   0  0  0  0  0  0  0  0  0  0  0  0
    0.9191    0.4204    1.4971 H   0  0  0  0  0  0  0  0  0  0  0  0
    3.5390    0.5832    2.4833 H   0  0  0  0  0  0  0  0  0  0  0  0
    0.6128   -1.5825    2.5289 H   0  0  0  0  0  0  0  0  0  0  0  0
    2.3901   -1.7716    2.6374 H   0  0  0  0  0  0  0  0  0  0  0  0
    2.6031   -0.5165    4.5585 H   0  0  0  0  0  0  0  0  0  0  0  0
   -1.1159   -2.4468    5.6740 H   0  0  0  0  0  0  0  0  0  0  0  0
   -0.5613   -2.5308    4.0346 H   0  0  0  0  0  0  0  0  0  0  0  0
   -1.2228   -1.0218    4.6597 H   0  0  0  0  0  0  0  0  0  0  0  0
    1.1641   -3.5282    6.0744 H   0  0  0  0  0  0  0  0  0  0  0  0
    2.6317   -2.5668    5.9215 H   0  0  0  0  0  0  0  0  0  0  0  0
    1.8222   -3.2079    4.5045 H   0  0  0  0  0  0  0  0  0  0  0  0
   -0.3782   -0.4029    6.8605 H   0  0  0  0  0  0  0  0  0  0  0  0
    1.2728   -2.3426    7.8657 H   0  0  0  0  0  0  0  0  0  0  0  0
    2.4274   -0.1896    7.9172 H   0  0  0  0  0  0  0  0  0  0  0  0
    2.1319    2.1789    7.6606 H   0  0  0  0  0  0  0  0  0  0  0  0
   -0.0413    1.2942    5.7970 H   0  0  0  0  0  0  0  0  0  0  0  0
    1.6696    3.7114    5.7372 H   0  0  0  0  0  0  0  0  0  0  0  0
    3.7515    2.8816    5.1103 H   0  0  0  0  0  0  0  0  0  0  0  0
    3.9565    1.5186    4.0411 H   0  0  0  0  0  0  0  0  0  0  0  0
    3.2966    1.2736    5.6085 H   0  0  0  0  0  0  0  0  0  0  0  0
    2.6155    4.1270    3.3297 H   0  0  0  0  0  0  0  0  0  0  0  0
    1.4876    3.2954    2.2443 H   0  0  0  0  0  0  0  0  0  0  0  0
    3.1191    2.7964    2.4192 H   0  0  0  0  0  0  0  0  0  0  0  0
    0.6478    5.1323    2.8827 H   0  0  0  0  0  0  0  0  0  0  0  0
    1.3238    5.6392    4.4320 H   0  0  0  0  0  0  0  0  0  0  0  0
   -0.2764    6.1129    3.9529 H   0  0  0  0  0  0  0  0  0  0  0  0
   -1.6349    4.6663    7.5671 H   0  0  0  0  0  0  0  0  0  0  0  0
    0.1088    4.5399    7.5890 H   0  0  0  0  0  0  0  0  0  0  0  0
  2  1  1  1
  1 30  1  0
  1 31  1  0
  1 32  1  0
  2 21  1  0
  2 29  1  0
  2  3  1  0
  3  4  1  0
  3 33  1  0
  3 34  1  0
  4  5  1  0
  4 35  1  0
  4 36  1  0
  5 26  1  0
  5  6  1  6
  5  7  1  0
  6 37  1  0
  6 38  1  0
  6 39  1  0
  7  8  1  0
  7 40  1  0
  7 41  1  0
  9  8  1  6
  9 13  1  0
  9 23  1  0
  9 10  1  0
 10 11  1  0
 10 12  1  0
 10 42  1  6
 11 43  1  0
 12 13  1  0
 12 44  1  0
 12 45  1  0
 13 14  1  0
 13 46  1  1
 14 15  1  0
 14 16  1  0
 14 17  1  0
 15 47  1  0
 15 48  1  0
 15 49  1  0
 16 50  1  0
 16 51  1  0
 16 52  1  0
 17 18  1  0
 17 19  1  0
 17 53  1  6
 18 54  1  0
 19 20  2  3
 19 55  1  0
 20 21  1  0
 20 56  1  0
 21 22  1  0
 21 57  1  6
 22 23  1  0
 22 26  1  0
 22 58  1  1
 23 24  1  0
 23 25  1  0
 24 59  1  0
 24 60  1  0
 24 61  1  0
 25 62  1  0
 25 63  1  0
 25 64  1  0
 26 27  1  6
 26 28  1  0
 27 65  1  0
 27 66  1  0
 27 67  1  0
 28 29  1  0
 29 68  1  0
 29 69  1  0
M  END
>  <i_m_ct_stereo_status>  (141) 
1

>  <s_m_source_file>  (141) 
/var/tmp/pbs.5083858.sched01/tmp120am4xz/605xn5hpsi.sdf

>  <i_m_source_file_index>  (141) 
1

>  <i_lp_mmshare_version>  (141) 
48012

>  <i_f3d_flags>  (141) 
0

>  <s_epik_input>  (141) 
W0NIM11DMShbQ0gzXSlbQ0BIXTJbQ0BdKFtDSDNdKShPW0NIMl0zKVtDQEBdKFtDSDNdKShbQ0gyXU80KVtDSDJdW0NIMl1bQ0BAXTMoW0NIM10pW0NASF0yL1tDSF09W0NIXVxbQ0BIXShbT0hdKUMoW0NIM10pKFtDSDNdKVtDQEhdKFtDQF0xNDUpW0NIMl1bQ0BASF01W09IXQ==

>  <s_epik_cmdline>  (141) 
J2VwaWtfcHl0aG9uJywgJy1waHQnLCAnMi4wJywgJy1waCcsICc3LjAnLCAnLXRuJywgJzgnLCAnLW1hJywgJzIwMCcsICctaW1hZScsICc8aW5maWxlLm1hZT4nLCAnLW9tYWUnLCAnPG91dGZpbGUubWFlPic=

>  <r_lp_tautomer_probability>  (141) 
1

>  <r_epik_Ionization_Penalty>  (141) 
3.02398e-07

>  <r_epik_Ionization_Penalty_Charging>  (141) 
0

>  <r_epik_Ionization_Penalty_Neutral>  (141) 
3.02398e-07

>  <r_epik_State_Penalty>  (141) 
-0

>  <r_epik_Charging_Adjusted_Penalty>  (141) 
0

>  <i_epik_Tot_Q>  (141) 
0

>  <i_epik_Tot_abs_Q>  (141) 
0

>  <s_lp_Force_Field>  (141) 
OPLS3e

>  <r_lp_Energy>  (141) 
113.577

>  <b_lp_Chiralities_Consistent>  (141) 
1

>  <s_lp_Variant>  (141) 
47:0-1

>  <s_i_glide_gridfile>  (141) 
pfpi4k_grid

>  <i_i_glide_lignum>  (141) 
1

>  <i_i_glide_rotatable_bonds>  (141) 
2

>  <r_i_docking_score>  (141) 
-2.31985

>  <r_i_glide_ligand_efficiency>  (141) 
-0.0799947

>  <r_i_glide_ligand_efficiency_sa>  (141) 
-0.245769

>  <r_i_glide_ligand_efficiency_ln>  (141) 
-0.531186

>  <r_i_glide_gscore>  (141) 
-2.31985

>  <r_i_glide_lipo>  (141) 
-0.0327835

>  <r_i_glide_hbond>  (141) 
0

>  <r_i_glide_metal>  (141) 
-0

>  <r_i_glide_rewards>  (141) 
-0.650572

>  <r_i_glide_evdw>  (141) 
-24.6394

>  <r_i_glide_ecoul>  (141) 
-2.69682

>  <r_i_glide_erotb>  (141) 
0

>  <r_i_glide_esite>  (141) 
0

>  <r_i_glide_emodel>  (141) 
-31.5266

>  <r_i_glide_energy>  (141) 
-27.3362

>  <r_i_glide_einternal>  (141) 
0.186382

>  <r_i_glide_intrahb_reward>  (141) 
-0

>  <i_i_glide_confnum>  (141) 
1

>  <i_i_glide_posenum>  (141) 
29

>  <r_i_glide_eff_state_penalty>  (141) 
0

>  <ligand_id>  (141) 
47

>  <original_smiles>  (141) 
CC12CCC3(C)COC45C(O)CC4C(C)(C)C(O)C=CC1C(C5(C)C)C3(C)OC2

>  <smiles>  (141) 
[H]OC1([H])C([H])=C([H])C2([H])C3([H])C4(C([H])([H])[H])OC([H])([H])C2(C([H])([H])[H])C([H])([H])C([H])([H])C4(C([H])([H])[H])C([H])([H])OC2(C([H])(O[H])C([H])([H])C2([H])C1(C([H])([H])[H])C([H])([H])[H])C3(C([H])([H])[H])C([H])([H])[H]

$$$$
47:1:0
     RDKit          3D

 69 73  0  0  1  0  0  0  0  0999 V2000
    0.0842    2.6098    9.0284 C   0  0  0  0  0  0  0  0  0  0  0  0
   -0.1694    2.9037    7.5325 C   0  0  2  0  0  0  0  0  0  0  0  0
   -1.6294    2.4985    7.1711 C   0  0  0  0  0  0  0  0  0  0  0  0
   -2.1554    2.8650    5.7491 C   0  0  0  0  0  0  0  0  0  0  0  0
   -1.2076    3.0718    4.4977 C   0  0  2  0  0  0  0  0  0  0  0  0
   -2.0786    3.9365    3.5426 C   0  0  0  0  0  0  0  0  0  0  0  0
   -0.9636    1.7652    3.6448 C   0  0  0  0  0  0  0  0  0  0  0  0
   -0.1771    0.6777    4.1617 O   0  0  0  0  0  0  0  0  0  0  0  0
    1.2290    0.5803    3.8428 C   0  0  2  0  0  0  0  0  0  0  0  0
    1.2983    0.0194    2.3673 C   0  0  1  0  0  0  0  0  0  0  0  0
    2.4234    0.2060    1.5335 O   0  0  0  0  0  0  0  0  0  0  0  0
    1.2358   -1.3863    2.9111 C   0  0  0  0  0  0  0  0  0  0  0  0
    1.7989   -0.8734    4.2411 C   0  0  2  0  0  0  0  0  0  0  0  0
    1.5481   -1.8294    5.4809 C   0  0  0  0  0  0  0  0  0  0  0  0
    0.0391   -2.1698    5.6276 C   0  0  0  0  0  0  0  0  0  0  0  0
    2.2414   -3.1841    5.1872 C   0  0  0  0  0  0  0  0  0  0  0  0
    2.1187   -1.3303    6.8571 C   0  0  1  0  0  0  0  0  0  0  0  0
    3.5127   -1.0945    6.8025 O   0  0  0  0  0  0  0  0  0  0  0  0
    1.3462   -0.1232    7.2948 C   0  0  0  0  0  0  0  0  0  0  0  0
    1.7561    1.1472    7.2041 C   0  0  0  0  0  0  0  0  0  0  0  0
    0.7786    2.1200    6.5934 C   0  0  2  0  0  0  0  0  0  0  0  0
    1.2869    2.8775    5.3254 C   0  0  1  0  0  0  0  0  0  0  0  0
    1.9800    1.9540    4.1894 C   0  0  0  0  0  0  0  0  0  0  0  0
    3.4586    1.6604    4.5754 C   0  0  0  0  0  0  0  0  0  0  0  0
    2.2168    2.8038    2.9094 C   0  0  0  0  0  0  0  0  0  0  0  0
    0.1066    3.8510    4.8927 C   0  0  1  0  0  0  0  0  0  0  0  0
    0.5207    5.0094    3.9372 C   0  0  0  0  0  0  0  0  0  0  0  0
   -0.2753    4.7373    5.9580 O   0  0  0  0  0  0  0  0  0  0  0  0
    0.0286    4.4001    7.2986 C   0  0  0  0  0  0  0  0  0  0  0  0
   -0.5782    3.1968    9.6673 H   0  0  0  0  0  0  0  0  0  0  0  0
    1.1072    2.8649    9.3105 H   0  0  0  0  0  0  0  0  0  0  0  0
   -0.0780    1.5594    9.2759 H   0  0  0  0  0  0  0  0  0  0  0  0
   -1.7485    1.4234    7.3184 H   0  0  0  0  0  0  0  0  0  0  0  0
   -2.3093    2.9427    7.9014 H   0  0  0  0  0  0  0  0  0  0  0  0
   -2.9361    2.1581    5.4887 H   0  0  0  0  0  0  0  0  0  0  0  0
   -2.6978    3.7979    5.9044 H   0  0  0  0  0  0  0  0  0  0  0  0
   -1.6082    4.1013    2.5714 H   0  0  0  0  0  0  0  0  0  0  0  0
   -2.2860    4.9145    3.9687 H   0  0  0  0  0  0  0  0  0  0  0  0
   -3.0419    3.4639    3.3410 H   0  0  0  0  0  0  0  0  0  0  0  0
   -1.9441    1.3163    3.4855 H   0  0  0  0  0  0  0  0  0  0  0  0
   -0.6301    2.0195    2.6391 H   0  0  0  0  0  0  0  0  0  0  0  0
    0.4096    0.2455    1.7773 H   0  0  0  0  0  0  0  0  0  0  0  0
    2.1490   -0.0831    0.6712 H   0  0  0  0  0  0  0  0  0  0  0  0
    0.2157   -1.7485    2.9567 H   0  0  0  0  0  0  0  0  0  0  0  0
    1.8812   -2.0986    2.3943 H   0  0  0  0  0  0  0  0  0  0  0  0
    2.8766   -0.8318    4.0811 H   0  0  0  0  0  0  0  0  0  0  0  0
   -0.1564   -2.7100    6.5554 H   0  0  0  0  0  0  0  0  0  0  0  0
   -0.3179   -2.8068    4.8207 H   0  0  0  0  0  0  0  0  0  0  0  0
   -0.5900   -1.2821    5.6221 H   0  0  0  0  0  0  0  0  0  0  0  0
    2.1236   -3.8840    6.0153 H   0  0  0  0  0  0  0  0  0  0  0  0
    3.3085   -3.0640    5.0097 H   0  0  0  0  0  0  0  0  0  0  0  0
    1.8285   -3.6698    4.3051 H   0  0  0  0  0  0  0  0  0  0  0  0
    1.9568   -2.0945    7.6175 H   0  0  0  0  0  0  0  0  0  0  0  0
    3.9511   -1.9140    6.6282 H   0  0  0  0  0  0  0  0  0  0  0  0
    0.2835   -0.2998    7.3258 H   0  0  0  0  0  0  0  0  0  0  0  0
    2.7953    1.4109    7.1380 H   0  0  0  0  0  0  0  0  0  0  0  0
    0.0831    1.4200    6.1753 H   0  0  0  0  0  0  0  0  0  0  0  0
    2.0770    3.5449    5.6704 H   0  0  0  0  0  0  0  0  0  0  0  0
    3.9814    2.5582    4.9085 H   0  0  0  0  0  0  0  0  0  0  0  0
    4.0274    1.2610    3.7347 H   0  0  0  0  0  0  0  0  0  0  0  0
    3.5774    0.9093    5.3403 H   0  0  0  0  0  0  0  0  0  0  0  0
    2.6041    3.7921    3.1486 H   0  0  0  0  0  0  0  0  0  0  0  0
    1.3305    2.8937    2.2876 H   0  0  0  0  0  0  0  0  0  0  0  0
    2.9857    2.4104    2.2511 H   0  0  0  0  0  0  0  0  0  0  0  0
    0.5488    4.7450    2.8853 H   0  0  0  0  0  0  0  0  0  0  0  0
    1.4937    5.4111    4.2188 H   0  0  0  0  0  0  0  0  0  0  0  0
   -0.1668    5.8544    3.9877 H   0  0  0  0  0  0  0  0  0  0  0  0
   -0.6208    4.9858    7.9500 H   0  0  0  0  0  0  0  0  0  0  0  0
    1.0523    4.6908    7.5303 H   0  0  0  0  0  0  0  0  0  0  0  0
  2  1  1  1
  1 30  1  0
  1 31  1  0
  1 32  1  0
  2 21  1  0
  2 29  1  0
  2  3  1  0
  3  4  1  0
  3 33  1  0
  3 34  1  0
  4  5  1  0
  4 35  1  0
  4 36  1  0
  5 26  1  0
  5  6  1  6
  5  7  1  0
  6 37  1  0
  6 38  1  0
  6 39  1  0
  7  8  1  0
  7 40  1  0
  7 41  1  0
  9  8  1  1
  9 13  1  0
  9 23  1  0
  9 10  1  0
 10 11  1  0
 10 12  1  0
 10 42  1  6
 11 43  1  0
 12 13  1  0
 12 44  1  0
 12 45  1  0
 13 14  1  0
 13 46  1  6
 14 15  1  0
 14 16  1  0
 14 17  1  0
 15 47  1  0
 15 48  1  0
 15 49  1  0
 16 50  1  0
 16 51  1  0
 16 52  1  0
 17 18  1  0
 17 19  1  0
 17 53  1  1
 18 54  1  0
 19 20  2  3
 19 55  1  0
 20 21  1  0
 20 56  1  0
 21 22  1  0
 21 57  1  6
 22 23  1  0
 22 26  1  0
 22 58  1  1
 23 24  1  0
 23 25  1  0
 24 59  1  0
 24 60  1  0
 24 61  1  0
 25 62  1  0
 25 63  1  0
 25 64  1  0
 26 27  1  6
 26 28  1  0
 27 65  1  0
 27 66  1  0
 27 67  1  0
 28 29  1  0
 29 68  1  0
 29 69  1  0
M  END
>  <i_m_ct_stereo_status>  (142) 
1

>  <s_m_source_file>  (142) 
/var/tmp/pbs.5083858.sched01/tmp120am4xz/605xn5hpsi.sdf

>  <i_m_source_file_index>  (142) 
2

>  <i_lp_mmshare_version>  (142) 
48012

>  <i_f3d_flags>  (142) 
0

>  <s_epik_input>  (142) 
W0NIM11DMShbQ0gzXSlbQ0BIXTJbQ0BdKFtDSDNdKShPW0NIMl0zKVtDQEBdKFtDSDNdKShbQ0gyXU80KVtDSDJdW0NIMl1bQ0BAXTMoW0NIM10pW0NASF0yL1tDSF09W0NIXVxbQ0BIXShbT0hdKUMoW0NIM10pKFtDSDNdKVtDQEhdKFtDQF0xNDUpW0NIMl1bQ0BASF01W09IXQ==

>  <s_epik_cmdline>  (142) 
J2VwaWtfcHl0aG9uJywgJy1waHQnLCAnMi4wJywgJy1waCcsICc3LjAnLCAnLXRuJywgJzgnLCAnLW1hJywgJzIwMCcsICctaW1hZScsICc8aW5maWxlLm1hZT4nLCAnLW9tYWUnLCAnPG91dGZpbGUubWFlPic=

>  <r_lp_tautomer_probability>  (142) 
1

>  <r_epik_Ionization_Penalty>  (142) 
3.02398e-07

>  <r_epik_Ionization_Penalty_Charging>  (142) 
0

>  <r_epik_Ionization_Penalty_Neutral>  (142) 
3.02398e-07

>  <r_epik_State_Penalty>  (142) 
-0

>  <r_epik_Charging_Adjusted_Penalty>  (142) 
0

>  <i_epik_Tot_Q>  (142) 
0

>  <i_epik_Tot_abs_Q>  (142) 
0

>  <s_lp_Force_Field>  (142) 
OPLS3e

>  <r_lp_Energy>  (142) 
138.172

>  <b_lp_Chiralities_Consistent>  (142) 
1

>  <s_lp_Variant>  (142) 
47:0-2

>  <s_i_glide_gridfile>  (142) 
pfpi4k_grid

>  <i_i_glide_lignum>  (142) 
2

>  <i_i_glide_rotatable_bonds>  (142) 
2

>  <r_i_docking_score>  (142) 
-2.33845

>  <r_i_glide_ligand_efficiency>  (142) 
-0.0806362

>  <r_i_glide_ligand_efficiency_sa>  (142) 
-0.24774

>  <r_i_glide_ligand_efficiency_ln>  (142) 
-0.535445

>  <r_i_glide_gscore>  (142) 
-2.33845

>  <r_i_glide_lipo>  (142) 
-0.0553887

>  <r_i_glide_hbond>  (142) 
-0.0835192

>  <r_i_glide_metal>  (142) 
-0

>  <r_i_glide_rewards>  (142) 
-0.650572

>  <r_i_glide_evdw>  (142) 
-24.0041

>  <r_i_glide_ecoul>  (142) 
-2.3251

>  <r_i_glide_erotb>  (142) 
0

>  <r_i_glide_esite>  (142) 
0

>  <r_i_glide_emodel>  (142) 
-29.4635

>  <r_i_glide_energy>  (142) 
-26.3292

>  <r_i_glide_einternal>  (142) 
1.67891

>  <r_i_glide_intrahb_reward>  (142) 
-0

>  <i_i_glide_confnum>  (142) 
1

>  <i_i_glide_posenum>  (142) 
9

>  <r_i_glide_eff_state_penalty>  (142) 
0

>  <ligand_id>  (142) 
47

>  <original_smiles>  (142) 
CC12CCC3(C)COC45C(O)CC4C(C)(C)C(O)C=CC1C(C5(C)C)C3(C)OC2

>  <smiles>  (142) 
[H]OC1([H])C([H])=C([H])C2([H])C3([H])C4(C([H])([H])[H])OC([H])([H])C2(C([H])([H])[H])C([H])([H])C([H])([H])C4(C([H])([H])[H])C([H])([H])OC2(C([H])(O[H])C([H])([H])C2([H])C1(C([H])([H])[H])C([H])([H])[H])C3(C([H])([H])[H])C([H])([H])[H]

$$$$
47:1:1
     RDKit          3D

 69 73  0  0  1  0  0  0  0  0999 V2000
   -0.5809    6.0660    8.2630 C   0  0  0  0  0  0  0  0  0  0  0  0
    0.6093    5.9149    7.2881 C   0  0  2  0  0  0  0  0  0  0  0  0
    0.2941    6.6763    5.9646 C   0  0  0  0  0  0  0  0  0  0  0  0
    1.4277    6.7983    4.8976 C   0  0  0  0  0  0  0  0  0  0  0  0
    2.6277    5.7743    4.7915 C   0  0  2  0  0  0  0  0  0  0  0  0
    3.7242    6.6034    4.0589 C   0  0  0  0  0  0  0  0  0  0  0  0
    2.3614    4.5746    3.7981 C   0  0  0  0  0  0  0  0  0  0  0  0
    1.4087    3.5477    4.1258 O   0  0  0  0  0  0  0  0  0  0  0  0
    1.8388    2.3161    4.7426 C   0  0  2  0  0  0  0  0  0  0  0  0
    2.4855    1.4558    3.5866 C   0  0  1  0  0  0  0  0  0  0  0  0
    3.4261    0.4333    3.8588 O   0  0  0  0  0  0  0  0  0  0  0  0
    1.1236    0.9074    3.2375 C   0  0  0  0  0  0  0  0  0  0  0  0
    0.6666    1.2087    4.6764 C   0  0  2  0  0  0  0  0  0  0  0  0
   -0.9031    1.2900    4.8748 C   0  0  0  0  0  0  0  0  0  0  0  0
   -1.5394    2.2928    3.8726 C   0  0  0  0  0  0  0  0  0  0  0  0
   -1.4944   -0.0896    4.4978 C   0  0  0  0  0  0  0  0  0  0  0  0
   -1.4126    1.5949    6.3301 C   0  0  1  0  0  0  0  0  0  0  0  0
   -0.9612    0.6416    7.2768 O   0  0  0  0  0  0  0  0  0  0  0  0
   -1.0261    3.0012    6.6876 C   0  0  0  0  0  0  0  0  0  0  0  0
   -0.0009    3.3648    7.4682 C   0  0  0  0  0  0  0  0  0  0  0  0
    0.9039    4.4415    6.9192 C   0  0  2  0  0  0  0  0  0  0  0  0
    2.4090    4.0450    6.7780 C   0  0  1  0  0  0  0  0  0  0  0  0
    2.6942    2.6192    6.0629 C   0  0  0  0  0  0  0  0  0  0  0  0
    2.5174    1.4671    7.0916 C   0  0  0  0  0  0  0  0  0  0  0  0
    4.2185    2.4822    5.7910 C   0  0  0  0  0  0  0  0  0  0  0  0
    3.1501    5.3346    6.2168 C   0  0  1  0  0  0  0  0  0  0  0  0
    4.6986    5.3394    6.3980 C   0  0  0  0  0  0  0  0  0  0  0  0
    2.9566    6.4697    7.0778 O   0  0  0  0  0  0  0  0  0  0  0  0
    1.8456    6.5147    7.9534 C   0  0  0  0  0  0  0  0  0  0  0  0
   -0.7502    7.1113    8.5256 H   0  0  0  0  0  0  0  0  0  0  0  0
   -0.3966    5.5288    9.1939 H   0  0  0  0  0  0  0  0  0  0  0  0
   -1.5081    5.6825    7.8394 H   0  0  0  0  0  0  0  0  0  0  0  0
   -0.5741    6.2150    5.4911 H   0  0  0  0  0  0  0  0  0  0  0  0
   -0.0374    7.6874    6.2109 H   0  0  0  0  0  0  0  0  0  0  0  0
    0.9682    6.9167    3.9152 H   0  0  0  0  0  0  0  0  0  0  0  0
    1.8604    7.7810    5.0943 H   0  0  0  0  0  0  0  0  0  0  0  0
    4.6080    6.0151    3.8123 H   0  0  0  0  0  0  0  0  0  0  0  0
    4.0577    7.4605    4.6465 H   0  0  0  0  0  0  0  0  0  0  0  0
    3.3528    6.9969    3.1123 H   0  0  0  0  0  0  0  0  0  0  0  0
    1.9638    5.0069    2.8796 H   0  0  0  0  0  0  0  0  0  0  0  0
    3.3005    4.1217    3.4840 H   0  0  0  0  0  0  0  0  0  0  0  0
    2.8717    2.0580    2.7618 H   0  0  0  0  0  0  0  0  0  0  0  0
    3.0531   -0.1210    4.5279 H   0  0  0  0  0  0  0  0  0  0  0  0
    0.6442    1.5035    2.4591 H   0  0  0  0  0  0  0  0  0  0  0  0
    1.1137   -0.1539    2.9815 H   0  0  0  0  0  0  0  0  0  0  0  0
    1.0158    0.3569    5.2636 H   0  0  0  0  0  0  0  0  0  0  0  0
   -2.5967    2.4569    4.0873 H   0  0  0  0  0  0  0  0  0  0  0  0
   -1.4910    1.9384    2.8434 H   0  0  0  0  0  0  0  0  0  0  0  0
   -1.0456    3.2640    3.8825 H   0  0  0  0  0  0  0  0  0  0  0  0
   -2.5778   -0.1113    4.6233 H   0  0  0  0  0  0  0  0  0  0  0  0
   -1.0790   -0.8957    5.1009 H   0  0  0  0  0  0  0  0  0  0  0  0
   -1.2941   -0.3254    3.4556 H   0  0  0  0  0  0  0  0  0  0  0  0
   -2.5031    1.5590    6.3495 H   0  0  0  0  0  0  0  0  0  0  0  0
   -0.0212    0.7100    7.3287 H   0  0  0  0  0  0  0  0  0  0  0  0
   -1.3760    3.7177    5.9633 H   0  0  0  0  0  0  0  0  0  0  0  0
    0.4340    2.7108    8.2005 H   0  0  0  0  0  0  0  0  0  0  0  0
    0.5708    4.4404    5.9018 H   0  0  0  0  0  0  0  0  0  0  0  0
    2.7865    3.9368    7.7943 H   0  0  0  0  0  0  0  0  0  0  0  0
    3.0099    1.6851    8.0403 H   0  0  0  0  0  0  0  0  0  0  0  0
    2.9370    0.5266    6.7315 H   0  0  0  0  0  0  0  0  0  0  0  0
    1.4899    1.2245    7.3079 H   0  0  0  0  0  0  0  0  0  0  0  0
    4.8093    2.8205    6.6398 H   0  0  0  0  0  0  0  0  0  0  0  0
    4.5286    2.9977    4.8868 H   0  0  0  0  0  0  0  0  0  0  0  0
    4.5653    1.4588    5.6685 H   0  0  0  0  0  0  0  0  0  0  0  0
    5.2529    4.8198    5.6218 H   0  0  0  0  0  0  0  0  0  0  0  0
    4.9749    4.9193    7.3651 H   0  0  0  0  0  0  0  0  0  0  0  0
    5.1084    6.3516    6.3947 H   0  0  0  0  0  0  0  0  0  0  0  0
    1.6749    7.5557    8.2294 H   0  0  0  0  0  0  0  0  0  0  0  0
    2.0819    5.9808    8.8734 H   0  0  0  0  0  0  0  0  0  0  0  0
  2  1  1  1
  1 30  1  0
  1 31  1  0
  1 32  1  0
  2 21  1  0
  2 29  1  0
  2  3  1  0
  3  4  1  0
  3 33  1  0
  3 34  1  0
  4  5  1  0
  4 35  1  0
  4 36  1  0
  5 26  1  0
  5  6  1  6
  5  7  1  0
  6 37  1  0
  6 38  1  0
  6 39  1  0
  7  8  1  0
  7 40  1  0
  7 41  1  0
  9  8  1  6
  9 13  1  0
  9 23  1  0
  9 10  1  0
 10 11  1  0
 10 12  1  0
 10 42  1  6
 11 43  1  0
 12 13  1  0
 12 44  1  0
 12 45  1  0
 13 14  1  0
 13 46  1  1
 14 15  1  0
 14 16  1  0
 14 17  1  0
 15 47  1  0
 15 48  1  0
 15 49  1  0
 16 50  1  0
 16 51  1  0
 16 52  1  0
 17 18  1  0
 17 19  1  0
 17 53  1  6
 18 54  1  0
 19 20  2  3
 19 55  1  0
 20 21  1  0
 20 56  1  0
 21 22  1  0
 21 57  1  6
 22 23  1  0
 22 26  1  0
 22 58  1  1
 23 24  1  0
 23 25  1  0
 24 59  1  0
 24 60  1  0
 24 61  1  0
 25 62  1  0
 25 63  1  0
 25 64  1  0
 26 27  1  6
 26 28  1  0
 27 65  1  0
 27 66  1  0
 27 67  1  0
 28 29  1  0
 29 68  1  0
 29 69  1  0
M  END
>  <i_m_ct_stereo_status>  (143) 
1

>  <s_m_source_file>  (143) 
/var/tmp/pbs.5083858.sched01/tmp120am4xz/605xn5hpsi.sdf

>  <i_m_source_file_index>  (143) 
2

>  <i_lp_mmshare_version>  (143) 
48012

>  <i_f3d_flags>  (143) 
0

>  <s_epik_input>  (143) 
W0NIM11DMShbQ0gzXSlbQ0BIXTJbQ0BdKFtDSDNdKShPW0NIMl0zKVtDQEBdKFtDSDNdKShbQ0gyXU80KVtDSDJdW0NIMl1bQ0BAXTMoW0NIM10pW0NASF0yL1tDSF09W0NIXVxbQ0BIXShbT0hdKUMoW0NIM10pKFtDSDNdKVtDQEhdKFtDQF0xNDUpW0NIMl1bQ0BASF01W09IXQ==

>  <s_epik_cmdline>  (143) 
J2VwaWtfcHl0aG9uJywgJy1waHQnLCAnMi4wJywgJy1waCcsICc3LjAnLCAnLXRuJywgJzgnLCAnLW1hJywgJzIwMCcsICctaW1hZScsICc8aW5maWxlLm1hZT4nLCAnLW9tYWUnLCAnPG91dGZpbGUubWFlPic=

>  <r_lp_tautomer_probability>  (143) 
1

>  <r_epik_Ionization_Penalty>  (143) 
3.02398e-07

>  <r_epik_Ionization_Penalty_Charging>  (143) 
0

>  <r_epik_Ionization_Penalty_Neutral>  (143) 
3.02398e-07

>  <r_epik_State_Penalty>  (143) 
-0

>  <r_epik_Charging_Adjusted_Penalty>  (143) 
0

>  <i_epik_Tot_Q>  (143) 
0

>  <i_epik_Tot_abs_Q>  (143) 
0

>  <s_lp_Force_Field>  (143) 
OPLS3e

>  <r_lp_Energy>  (143) 
138.172

>  <b_lp_Chiralities_Consistent>  (143) 
1

>  <s_lp_Variant>  (143) 
47:0-2

>  <s_i_glide_gridfile>  (143) 
pfpi4k_grid

>  <i_i_glide_lignum>  (143) 
2

>  <i_i_glide_rotatable_bonds>  (143) 
2

>  <r_i_docking_score>  (143) 
-2.27891

>  <r_i_glide_ligand_efficiency>  (143) 
-0.0785832

>  <r_i_glide_ligand_efficiency_sa>  (143) 
-0.241432

>  <r_i_glide_ligand_efficiency_ln>  (143) 
-0.521813

>  <r_i_glide_gscore>  (143) 
-2.27891

>  <r_i_glide_lipo>  (143) 
-0.0589209

>  <r_i_glide_hbond>  (143) 
-0.0984163

>  <r_i_glide_metal>  (143) 
-0

>  <r_i_glide_rewards>  (143) 
-0.650572

>  <r_i_glide_evdw>  (143) 
-22.7725

>  <r_i_glide_ecoul>  (143) 
-2.21585

>  <r_i_glide_erotb>  (143) 
0

>  <r_i_glide_esite>  (143) 
0

>  <r_i_glide_emodel>  (143) 
-28.8795

>  <r_i_glide_energy>  (143) 
-24.9883

>  <r_i_glide_einternal>  (143) 
0.0384042

>  <r_i_glide_intrahb_reward>  (143) 
-0

>  <i_i_glide_confnum>  (143) 
1

>  <i_i_glide_posenum>  (143) 
7

>  <r_i_glide_eff_state_penalty>  (143) 
0

>  <ligand_id>  (143) 
47

>  <original_smiles>  (143) 
CC12CCC3(C)COC45C(O)CC4C(C)(C)C(O)C=CC1C(C5(C)C)C3(C)OC2

>  <smiles>  (143) 
[H]OC1([H])C([H])=C([H])C2([H])C3([H])C4(C([H])([H])[H])OC([H])([H])C2(C([H])([H])[H])C([H])([H])C([H])([H])C4(C([H])([H])[H])C([H])([H])OC2(C([H])(O[H])C([H])([H])C2([H])C1(C([H])([H])[H])C([H])([H])[H])C3(C([H])([H])[H])C([H])([H])[H]

$$$$
47:1:2
     RDKit          3D

 69 73  0  0  1  0  0  0  0  0999 V2000
   -0.8691    2.3754    8.5906 C   0  0  0  0  0  0  0  0  0  0  0  0
   -0.8412    2.8085    7.1077 C   0  0  2  0  0  0  0  0  0  0  0  0
   -2.1716    2.3806    6.4241 C   0  0  0  0  0  0  0  0  0  0  0  0
   -2.4117    2.8642    4.9631 C   0  0  0  0  0  0  0  0  0  0  0  0
   -1.2738    3.2436    3.9539 C   0  0  2  0  0  0  0  0  0  0  0  0
   -2.0301    4.1478    2.9432 C   0  0  0  0  0  0  0  0  0  0  0  0
   -0.7976    2.0377    3.0510 C   0  0  0  0  0  0  0  0  0  0  0  0
   -0.0682    0.9375    3.6199 O   0  0  0  0  0  0  0  0  0  0  0  0
    1.3739    0.9322    3.5787 C   0  0  2  0  0  0  0  0  0  0  0  0
    1.7566    0.5265    2.1019 C   0  0  1  0  0  0  0  0  0  0  0  0
    3.0133    0.8629    1.5559 O   0  0  0  0  0  0  0  0  0  0  0  0
    1.6772   -0.9287    2.4831 C   0  0  0  0  0  0  0  0  0  0  0  0
    1.9496   -0.5288    3.9424 C   0  0  2  0  0  0  0  0  0  0  0  0
    1.5259   -1.6131    5.0175 C   0  0  0  0  0  0  0  0  0  0  0  0
    0.0418   -2.0311    4.8308 C   0  0  0  0  0  0  0  0  0  0  0  0
    2.3455   -2.8994    4.7440 C   0  0  0  0  0  0  0  0  0  0  0  0
    1.7864   -1.2341    6.5190 C   0  0  1  0  0  0  0  0  0  0  0  0
    3.1473   -0.9389    6.7745 O   0  0  0  0  0  0  0  0  0  0  0  0
    0.8719   -0.1099    6.9014 C   0  0  0  0  0  0  0  0  0  0  0  0
    1.2121    1.1789    7.0114 C   0  0  0  0  0  0  0  0  0  0  0  0
    0.3164    2.1667    6.3081 C   0  0  2  0  0  0  0  0  0  0  0  0
    1.0140    3.0709    5.2422 C   0  0  1  0  0  0  0  0  0  0  0  0
    1.9662    2.2960    4.1878 C   0  0  0  0  0  0  0  0  0  0  0  0
    3.3590    2.0332    4.8293 C   0  0  0  0  0  0  0  0  0  0  0  0
    2.3876    3.2844    3.0658 C   0  0  0  0  0  0  0  0  0  0  0  0
   -0.1151    4.0322    4.6701 C   0  0  1  0  0  0  0  0  0  0  0  0
    0.3987    5.2972    3.9289 C   0  0  0  0  0  0  0  0  0  0  0  0
   -0.7402    4.7913    5.7178 O   0  0  0  0  0  0  0  0  0  0  0  0
   -0.6905    4.3278    7.0544 C   0  0  0  0  0  0  0  0  0  0  0  0
   -1.6799    2.8669    9.1329 H   0  0  0  0  0  0  0  0  0  0  0  0
    0.0615    2.6448    9.0937 H   0  0  0  0  0  0  0  0  0  0  0  0
   -1.0110    1.2994    8.7023 H   0  0  0  0  0  0  0  0  0  0  0  0
   -2.2538    1.2916    6.4435 H   0  0  0  0  0  0  0  0  0  0  0  0
   -3.0097    2.7216    7.0368 H   0  0  0  0  0  0  0  0  0  0  0  0
   -3.0284    2.1410    4.4473 H   0  0  0  0  0  0  0  0  0  0  0  0
   -3.0420    3.7397    5.0994 H   0  0  0  0  0  0  0  0  0  0  0  0
   -1.3983    4.4514    2.1162 H   0  0  0  0  0  0  0  0  0  0  0  0
   -2.3995    5.0543    3.4013 H   0  0  0  0  0  0  0  0  0  0  0  0
   -2.8919    3.6413    2.5038 H   0  0  0  0  0  0  0  0  0  0  0  0
   -1.6950    1.5617    2.6548 H   0  0  0  0  0  0  0  0  0  0  0  0
   -0.2913    2.4016    2.1593 H   0  0  0  0  0  0  0  0  0  0  0  0
    0.9865    0.7583    1.3609 H   0  0  0  0  0  0  0  0  0  0  0  0
    3.6505    0.8151    2.2530 H   0  0  0  0  0  0  0  0  0  0  0  0
    0.6847   -1.3356    2.2827 H   0  0  0  0  0  0  0  0  0  0  0  0
    2.4587   -1.5507    2.0418 H   0  0  0  0  0  0  0  0  0  0  0  0
    3.0355   -0.4273    4.0038 H   0  0  0  0  0  0  0  0  0  0  0  0
   -0.2968   -2.6706    5.6482 H   0  0  0  0  0  0  0  0  0  0  0  0
   -0.1109   -2.5977    3.9140 H   0  0  0  0  0  0  0  0  0  0  0  0
   -0.6300   -1.1756    4.7790 H   0  0  0  0  0  0  0  0  0  0  0  0
    2.1129   -3.6829    5.4665 H   0  0  0  0  0  0  0  0  0  0  0  0
    3.4169   -2.7143    4.8019 H   0  0  0  0  0  0  0  0  0  0  0  0
    2.1445   -3.3100    3.7563 H   0  0  0  0  0  0  0  0  0  0  0  0
    1.5254   -2.0788    7.1589 H   0  0  0  0  0  0  0  0  0  0  0  0
    3.4252   -0.2575    6.1877 H   0  0  0  0  0  0  0  0  0  0  0  0
   -0.1626   -0.3329    6.6952 H   0  0  0  0  0  0  0  0  0  0  0  0
    2.2224    1.5001    7.1848 H   0  0  0  0  0  0  0  0  0  0  0  0
   -0.2410    1.4844    5.6989 H   0  0  0  0  0  0  0  0  0  0  0  0
    1.6785    3.7332    5.7971 H   0  0  0  0  0  0  0  0  0  0  0  0
    3.7479    2.9168    5.3386 H   0  0  0  0  0  0  0  0  0  0  0  0
    4.1071    1.7484    4.0874 H   0  0  0  0  0  0  0  0  0  0  0  0
    3.3722    1.2197    5.5358 H   0  0  0  0  0  0  0  0  0  0  0  0
    2.6578    4.2595    3.4657 H   0  0  0  0  0  0  0  0  0  0  0  0
    1.6345    3.3883    2.2920 H   0  0  0  0  0  0  0  0  0  0  0  0
    3.2923    3.0053    2.5370 H   0  0  0  0  0  0  0  0  0  0  0  0
    0.6429    5.1389    2.8803 H   0  0  0  0  0  0  0  0  0  0  0  0
    1.2747    5.7113    4.4253 H   0  0  0  0  0  0  0  0  0  0  0  0
   -0.3375    6.1005    3.9087 H   0  0  0  0  0  0  0  0  0  0  0  0
   -1.4893    4.8160    7.6132 H   0  0  0  0  0  0  0  0  0  0  0  0
    0.2477    4.6374    7.5124 H   0  0  0  0  0  0  0  0  0  0  0  0
  2  1  1  1
  1 30  1  0
  1 31  1  0
  1 32  1  0
  2 21  1  0
  2 29  1  0
  2  3  1  0
  3  4  1  0
  3 33  1  0
  3 34  1  0
  4  5  1  0
  4 35  1  0
  4 36  1  0
  5 26  1  0
  5  6  1  6
  5  7  1  0
  6 37  1  0
  6 38  1  0
  6 39  1  0
  7  8  1  0
  7 40  1  0
  7 41  1  0
  9  8  1  6
  9 13  1  0
  9 23  1  0
  9 10  1  0
 10 11  1  0
 10 12  1  0
 10 42  1  6
 11 43  1  0
 12 13  1  0
 12 44  1  0
 12 45  1  0
 13 14  1  0
 13 46  1  6
 14 15  1  0
 14 16  1  0
 14 17  1  0
 15 47  1  0
 15 48  1  0
 15 49  1  0
 16 50  1  0
 16 51  1  0
 16 52  1  0
 17 18  1  0
 17 19  1  0
 17 53  1  1
 18 54  1  0
 19 20  2  3
 19 55  1  0
 20 21  1  0
 20 56  1  0
 21 22  1  0
 21 57  1  6
 22 23  1  0
 22 26  1  0
 22 58  1  1
 23 24  1  0
 23 25  1  0
 24 59  1  0
 24 60  1  0
 24 61  1  0
 25 62  1  0
 25 63  1  0
 25 64  1  0
 26 27  1  6
 26 28  1  0
 27 65  1  0
 27 66  1  0
 27 67  1  0
 28 29  1  0
 29 68  1  0
 29 69  1  0
M  END
>  <i_m_ct_stereo_status>  (144) 
1

>  <s_m_source_file>  (144) 
/var/tmp/pbs.5083858.sched01/tmp120am4xz/605xn5hpsi.sdf

>  <i_m_source_file_index>  (144) 
2

>  <i_lp_mmshare_version>  (144) 
48012

>  <i_f3d_flags>  (144) 
0

>  <s_epik_input>  (144) 
W0NIM11DMShbQ0gzXSlbQ0BIXTJbQ0BdKFtDSDNdKShPW0NIMl0zKVtDQEBdKFtDSDNdKShbQ0gyXU80KVtDSDJdW0NIMl1bQ0BAXTMoW0NIM10pW0NASF0yL1tDSF09W0NIXVxbQ0BIXShbT0hdKUMoW0NIM10pKFtDSDNdKVtDQEhdKFtDQF0xNDUpW0NIMl1bQ0BASF01W09IXQ==

>  <s_epik_cmdline>  (144) 
J2VwaWtfcHl0aG9uJywgJy1waHQnLCAnMi4wJywgJy1waCcsICc3LjAnLCAnLXRuJywgJzgnLCAnLW1hJywgJzIwMCcsICctaW1hZScsICc8aW5maWxlLm1hZT4nLCAnLW9tYWUnLCAnPG91dGZpbGUubWFlPic=

>  <r_lp_tautomer_probability>  (144) 
1

>  <r_epik_Ionization_Penalty>  (144) 
3.02398e-07

>  <r_epik_Ionization_Penalty_Charging>  (144) 
0

>  <r_epik_Ionization_Penalty_Neutral>  (144) 
3.02398e-07

>  <r_epik_State_Penalty>  (144) 
-0

>  <r_epik_Charging_Adjusted_Penalty>  (144) 
0

>  <i_epik_Tot_Q>  (144) 
0

>  <i_epik_Tot_abs_Q>  (144) 
0

>  <s_lp_Force_Field>  (144) 
OPLS3e

>  <r_lp_Energy>  (144) 
138.172

>  <b_lp_Chiralities_Consistent>  (144) 
1

>  <s_lp_Variant>  (144) 
47:0-2

>  <s_i_glide_gridfile>  (144) 
pfpi4k_grid

>  <i_i_glide_lignum>  (144) 
2

>  <i_i_glide_rotatable_bonds>  (144) 
2

>  <r_i_docking_score>  (144) 
-2.16091

>  <r_i_glide_ligand_efficiency>  (144) 
-0.0745143

>  <r_i_glide_ligand_efficiency_sa>  (144) 
-0.228932

>  <r_i_glide_ligand_efficiency_ln>  (144) 
-0.494795

>  <r_i_glide_gscore>  (144) 
-2.16091

>  <r_i_glide_lipo>  (144) 
-0.0669303

>  <r_i_glide_hbond>  (144) 
0

>  <r_i_glide_metal>  (144) 
-0

>  <r_i_glide_rewards>  (144) 
-0.650572

>  <r_i_glide_evdw>  (144) 
-23.6958

>  <r_i_glide_ecoul>  (144) 
-1.72414

>  <r_i_glide_erotb>  (144) 
0

>  <r_i_glide_esite>  (144) 
0

>  <r_i_glide_emodel>  (144) 
-28.9328

>  <r_i_glide_energy>  (144) 
-25.42

>  <r_i_glide_einternal>  (144) 
0.152993

>  <r_i_glide_intrahb_reward>  (144) 
-0

>  <i_i_glide_confnum>  (144) 
1

>  <i_i_glide_posenum>  (144) 
19

>  <r_i_glide_eff_state_penalty>  (144) 
0

>  <ligand_id>  (144) 
47

>  <original_smiles>  (144) 
CC12CCC3(C)COC45C(O)CC4C(C)(C)C(O)C=CC1C(C5(C)C)C3(C)OC2

>  <smiles>  (144) 
[H]OC1([H])C([H])=C([H])C2([H])C3([H])C4(C([H])([H])[H])OC([H])([H])C2(C([H])([H])[H])C([H])([H])C([H])([H])C4(C([H])([H])[H])C([H])([H])OC2(C([H])(O[H])C([H])([H])C2([H])C1(C([H])([H])[H])C([H])([H])[H])C3(C([H])([H])[H])C([H])([H])[H]

$$$$
47:2:0
     RDKit          3D

 69 73  0  0  1  0  0  0  0  0999 V2000
    2.7811    4.4478    2.9099 C   0  0  0  0  0  0  0  0  0  0  0  0
    2.1248    3.8642    4.1847 C   0  0  2  0  0  0  0  0  0  0  0  0
    3.2448    3.2682    5.0864 C   0  0  0  0  0  0  0  0  0  0  0  0
    2.9544    3.1146    6.5939 C   0  0  0  0  0  0  0  0  0  0  0  0
    1.5682    2.6144    7.0990 C   0  0  2  0  0  0  0  0  0  0  0  0
    1.5407    3.0643    8.5885 C   0  0  0  0  0  0  0  0  0  0  0  0
    1.5042    1.0653    7.1721 C   0  0  0  0  0  0  0  0  0  0  0  0
    1.6351    0.4032    5.9267 O   0  0  0  0  0  0  0  0  0  0  0  0
    0.4765   -0.1652    5.3118 C   0  0  2  0  0  0  0  0  0  0  0  0
    0.0145   -1.4507    6.0995 C   0  0  1  0  0  0  0  0  0  0  0  0
   -1.3239   -1.9028    6.0653 O   0  0  0  0  0  0  0  0  0  0  0  0
    0.9330   -2.3169    5.2776 C   0  0  0  0  0  0  0  0  0  0  0  0
    1.0408   -1.1901    4.2361 C   0  0  2  0  0  0  0  0  0  0  0  0
    2.3865   -1.0949    3.4402 C   0  0  0  0  0  0  0  0  0  0  0  0
    3.5876   -1.6143    4.2834 C   0  0  0  0  0  0  0  0  0  0  0  0
    2.3021   -2.0108    2.1969 C   0  0  0  0  0  0  0  0  0  0  0  0
    2.7070    0.3593    3.0244 C   0  0  1  0  0  0  0  0  0  0  0  0
    3.9545    0.4743    2.3815 O   0  0  0  0  0  0  0  0  0  0  0  0
    1.6948    1.0444    2.1583 C   0  0  0  0  0  0  0  0  0  0  0  0
    0.9825    2.1330    2.4874 C   0  0  0  0  0  0  0  0  0  0  0  0
    0.9310    2.9317    3.7919 C   0  0  1  0  0  0  0  0  0  0  0  0
   -0.0313    2.4879    4.9500 C   0  0  1  0  0  0  0  0  0  0  0  0
   -0.5905    0.9757    4.9968 C   0  0  0  0  0  0  0  0  0  0  0  0
   -1.3734    0.6458    3.6976 C   0  0  0  0  0  0  0  0  0  0  0  0
   -1.7593    0.9483    6.0296 C   0  0  0  0  0  0  0  0  0  0  0  0
    0.3630    3.2435    6.2976 C   0  0  1  0  0  0  0  0  0  0  0  0
   -0.8691    3.5611    7.1982 C   0  0  0  0  0  0  0  0  0  0  0  0
    0.6549    4.6293    6.0353 O   0  0  0  0  0  0  0  0  0  0  0  0
    1.5028    5.0343    4.9625 C   0  0  0  0  0  0  0  0  0  0  0  0
    3.5076    5.2245    3.1469 H   0  0  0  0  0  0  0  0  0  0  0  0
    2.0425    4.8966    2.2441 H   0  0  0  0  0  0  0  0  0  0  0  0
    3.3050    3.6807    2.3445 H   0  0  0  0  0  0  0  0  0  0  0  0
    3.7252    2.3894    4.6890 H   0  0  0  0  0  0  0  0  0  0  0  0
    4.0773    3.9721    5.0438 H   0  0  0  0  0  0  0  0  0  0  0  0
    3.7438    2.5030    7.0307 H   0  0  0  0  0  0  0  0  0  0  0  0
    3.1248    4.1037    7.0221 H   0  0  0  0  0  0  0  0  0  0  0  0
    0.6874    2.6616    9.1371 H   0  0  0  0  0  0  0  0  0  0  0  0
    1.5126    4.1511    8.6902 H   0  0  0  0  0  0  0  0  0  0  0  0
    2.4275    2.7223    9.1252 H   0  0  0  0  0  0  0  0  0  0  0  0
    2.3595    0.7193    7.7529 H   0  0  0  0  0  0  0  0  0  0  0  0
    0.6366    0.7221    7.7316 H   0  0  0  0  0  0  0  0  0  0  0  0
    0.3414   -1.4359    7.1390 H   0  0  0  0  0  0  0  0  0  0  0  0
   -1.5450   -1.9945    5.1490 H   0  0  0  0  0  0  0  0  0  0  0  0
    1.8269   -2.5390    5.8603 H   0  0  0  0  0  0  0  0  0  0  0  0
    0.4813   -3.2322    4.8895 H   0  0  0  0  0  0  0  0  0  0  0  0
    0.2342   -1.3820    3.5293 H   0  0  0  0  0  0  0  0  0  0  0  0
    4.5429   -1.4963    3.7712 H   0  0  0  0  0  0  0  0  0  0  0  0
    3.5084   -2.6809    4.4880 H   0  0  0  0  0  0  0  0  0  0  0  0
    3.6670   -1.0894    5.2350 H   0  0  0  0  0  0  0  0  0  0  0  0
    3.2330   -2.0100    1.6288 H   0  0  0  0  0  0  0  0  0  0  0  0
    1.5083   -1.7057    1.5164 H   0  0  0  0  0  0  0  0  0  0  0  0
    2.1023   -3.0425    2.4836 H   0  0  0  0  0  0  0  0  0  0  0  0
    2.7529    0.8962    3.9473 H   0  0  0  0  0  0  0  0  0  0  0  0
    4.1609    1.3997    2.3027 H   0  0  0  0  0  0  0  0  0  0  0  0
    1.5547    0.6250    1.1728 H   0  0  0  0  0  0  0  0  0  0  0  0
    0.3075    2.4837    1.7235 H   0  0  0  0  0  0  0  0  0  0  0  0
    0.3028    3.7004    3.3362 H   0  0  0  0  0  0  0  0  0  0  0  0
   -0.9454    3.0183    4.6770 H   0  0  0  0  0  0  0  0  0  0  0  0
   -2.0775    1.4378    3.4364 H   0  0  0  0  0  0  0  0  0  0  0  0
   -1.9480   -0.2724    3.8078 H   0  0  0  0  0  0  0  0  0  0  0  0
   -0.7673    0.4598    2.8226 H   0  0  0  0  0  0  0  0  0  0  0  0
   -2.3707    1.8479    5.9850 H   0  0  0  0  0  0  0  0  0  0  0  0
   -1.4148    0.7985    7.0487 H   0  0  0  0  0  0  0  0  0  0  0  0
   -2.4910    0.1644    5.8481 H   0  0  0  0  0  0  0  0  0  0  0  0
   -1.1917    2.7347    7.8230 H   0  0  0  0  0  0  0  0  0  0  0  0
   -1.7185    3.8993    6.6046 H   0  0  0  0  0  0  0  0  0  0  0  0
   -0.6664    4.3783    7.8906 H   0  0  0  0  0  0  0  0  0  0  0  0
    2.2794    5.6853    5.3659 H   0  0  0  0  0  0  0  0  0  0  0  0
    0.9122    5.6683    4.3002 H   0  0  0  0  0  0  0  0  0  0  0  0
  2  1  1  6
  1 30  1  0
  1 31  1  0
  1 32  1  0
  2 21  1  0
  2 29  1  0
  2  3  1  0
  3  4  1  0
  3 33  1  0
  3 34  1  0
  4  5  1  0
  4 35  1  0
  4 36  1  0
  5 26  1  0
  5  6  1  1
  5  7  1  0
  6 37  1  0
  6 38  1  0
  6 39  1  0
  7  8  1  0
  7 40  1  0
  7 41  1  0
  9  8  1  1
  9 13  1  0
  9 23  1  0
  9 10  1  0
 10 11  1  0
 10 12  1  0
 10 42  1  1
 11 43  1  0
 12 13  1  0
 12 44  1  0
 12 45  1  0
 13 14  1  0
 13 46  1  6
 14 15  1  0
 14 16  1  0
 14 17  1  0
 15 47  1  0
 15 48  1  0
 15 49  1  0
 16 50  1  0
 16 51  1  0
 16 52  1  0
 17 18  1  0
 17 19  1  0
 17 53  1  1
 18 54  1  0
 19 20  2  3
 19 55  1  0
 20 21  1  0
 20 56  1  0
 21 22  1  0
 21 57  1  6
 22 23  1  0
 22 26  1  0
 22 58  1  6
 23 24  1  0
 23 25  1  0
 24 59  1  0
 24 60  1  0
 24 61  1  0
 25 62  1  0
 25 63  1  0
 25 64  1  0
 26 27  1  1
 26 28  1  0
 27 65  1  0
 27 66  1  0
 27 67  1  0
 28 29  1  0
 29 68  1  0
 29 69  1  0
M  END
>  <i_m_ct_stereo_status>  (145) 
1

>  <s_m_source_file>  (145) 
/var/tmp/pbs.5083858.sched01/tmp120am4xz/605xn5hpsi.sdf

>  <i_m_source_file_index>  (145) 
3

>  <i_lp_mmshare_version>  (145) 
48012

>  <i_f3d_flags>  (145) 
0

>  <s_epik_input>  (145) 
W0NIM11DMShbQ0gzXSlbQ0BIXTJbQ0BdKFtDSDNdKShPW0NIMl0zKVtDQEBdKFtDSDNdKShbQ0gyXU80KVtDSDJdW0NIMl1bQ0BAXTMoW0NIM10pW0NASF0yL1tDSF09W0NIXVxbQ0BIXShbT0hdKUMoW0NIM10pKFtDSDNdKVtDQEhdKFtDQF0xNDUpW0NIMl1bQ0BASF01W09IXQ==

>  <s_epik_cmdline>  (145) 
J2VwaWtfcHl0aG9uJywgJy1waHQnLCAnMi4wJywgJy1waCcsICc3LjAnLCAnLXRuJywgJzgnLCAnLW1hJywgJzIwMCcsICctaW1hZScsICc8aW5maWxlLm1hZT4nLCAnLW9tYWUnLCAnPG91dGZpbGUubWFlPic=

>  <r_lp_tautomer_probability>  (145) 
1

>  <r_epik_Ionization_Penalty>  (145) 
3.02398e-07

>  <r_epik_Ionization_Penalty_Charging>  (145) 
0

>  <r_epik_Ionization_Penalty_Neutral>  (145) 
3.02398e-07

>  <r_epik_State_Penalty>  (145) 
-0

>  <r_epik_Charging_Adjusted_Penalty>  (145) 
0

>  <i_epik_Tot_Q>  (145) 
0

>  <i_epik_Tot_abs_Q>  (145) 
0

>  <s_lp_Force_Field>  (145) 
OPLS3e

>  <r_lp_Energy>  (145) 
124.21

>  <b_lp_Chiralities_Consistent>  (145) 
1

>  <s_lp_Variant>  (145) 
47:0-3

>  <s_i_glide_gridfile>  (145) 
pfpi4k_grid

>  <i_i_glide_lignum>  (145) 
3

>  <i_i_glide_rotatable_bonds>  (145) 
2

>  <r_i_docking_score>  (145) 
-2.87205

>  <r_i_glide_ligand_efficiency>  (145) 
-0.0990361

>  <r_i_glide_ligand_efficiency_sa>  (145) 
-0.30427

>  <r_i_glide_ligand_efficiency_ln>  (145) 
-0.657626

>  <r_i_glide_gscore>  (145) 
-2.87205

>  <r_i_glide_lipo>  (145) 
-2.75639e-05

>  <r_i_glide_hbond>  (145) 
-0.297023

>  <r_i_glide_metal>  (145) 
-0

>  <r_i_glide_rewards>  (145) 
-0.650572

>  <r_i_glide_evdw>  (145) 
-21.3686

>  <r_i_glide_ecoul>  (145) 
-5.70663

>  <r_i_glide_erotb>  (145) 
0

>  <r_i_glide_esite>  (145) 
0

>  <r_i_glide_emodel>  (145) 
-32.3902

>  <r_i_glide_energy>  (145) 
-27.0752

>  <r_i_glide_einternal>  (145) 
0.402857

>  <r_i_glide_intrahb_reward>  (145) 
-0

>  <i_i_glide_confnum>  (145) 
1

>  <i_i_glide_posenum>  (145) 
2

>  <r_i_glide_eff_state_penalty>  (145) 
0

>  <ligand_id>  (145) 
47

>  <original_smiles>  (145) 
CC12CCC3(C)COC45C(O)CC4C(C)(C)C(O)C=CC1C(C5(C)C)C3(C)OC2

>  <smiles>  (145) 
[H]OC1([H])C([H])=C([H])C2([H])C3([H])C4(C([H])([H])[H])OC([H])([H])C2(C([H])([H])[H])C([H])([H])C([H])([H])C4(C([H])([H])[H])C([H])([H])OC2(C([H])(O[H])C([H])([H])C2([H])C1(C([H])([H])[H])C([H])([H])[H])C3(C([H])([H])[H])C([H])([H])[H]

$$$$
47:2:1
     RDKit          3D

 69 73  0  0  1  0  0  0  0  0999 V2000
    0.4213    2.4005    9.1168 C   0  0  0  0  0  0  0  0  0  0  0  0
    0.2586    2.6502    7.5968 C   0  0  2  0  0  0  0  0  0  0  0  0
   -1.1041    2.0505    7.1484 C   0  0  0  0  0  0  0  0  0  0  0  0
   -1.7445    2.5939    5.8550 C   0  0  0  0  0  0  0  0  0  0  0  0
   -0.8774    2.9004    4.5959 C   0  0  2  0  0  0  0  0  0  0  0  0
   -1.7841    3.8406    3.7535 C   0  0  0  0  0  0  0  0  0  0  0  0
   -0.7014    1.6476    3.6953 C   0  0  0  0  0  0  0  0  0  0  0  0
    0.0012    0.5758    4.3027 O   0  0  0  0  0  0  0  0  0  0  0  0
    1.3556    0.3227    3.9110 C   0  0  2  0  0  0  0  0  0  0  0  0
    1.3988   -0.2872    2.4555 C   0  0  1  0  0  0  0  0  0  0  0  0
    2.5334   -0.1705    1.6203 O   0  0  0  0  0  0  0  0  0  0  0  0
    1.2463   -1.6792    3.0141 C   0  0  0  0  0  0  0  0  0  0  0  0
    1.6492   -1.1584    4.4036 C   0  0  2  0  0  0  0  0  0  0  0  0
    1.0301   -1.9015    5.6409 C   0  0  0  0  0  0  0  0  0  0  0  0
   -0.3677   -2.4931    5.3047 C   0  0  0  0  0  0  0  0  0  0  0  0
    1.9323   -3.1051    6.0026 C   0  0  0  0  0  0  0  0  0  0  0  0
    0.8516   -0.9650    6.8596 C   0  0  1  0  0  0  0  0  0  0  0  0
    0.2146   -1.6108    7.9505 O   0  0  0  0  0  0  0  0  0  0  0  0
    2.1012   -0.3053    7.3746 C   0  0  0  0  0  0  0  0  0  0  0  0
    2.3639    1.0112    7.3829 C   0  0  0  0  0  0  0  0  0  0  0  0
    1.5487    2.1885    6.8422 C   0  0  1  0  0  0  0  0  0  0  0  0
    1.6849    2.6185    5.3395 C   0  0  1  0  0  0  0  0  0  0  0  0
    2.2709    1.5811    4.2532 C   0  0  0  0  0  0  0  0  0  0  0  0
    3.7103    1.1231    4.6446 C   0  0  0  0  0  0  0  0  0  0  0  0
    2.5886    2.3974    2.9652 C   0  0  0  0  0  0  0  0  0  0  0  0
    0.4892    3.6031    4.9543 C   0  0  1  0  0  0  0  0  0  0  0  0
    0.9100    4.6893    3.9180 C   0  0  0  0  0  0  0  0  0  0  0  0
    0.2409    4.5551    6.0070 O   0  0  0  0  0  0  0  0  0  0  0  0
    0.1684    4.1685    7.3758 C   0  0  0  0  0  0  0  0  0  0  0  0
   -0.3835    2.8630    9.6908 H   0  0  0  0  0  0  0  0  0  0  0  0
    1.3565    2.8213    9.4928 H   0  0  0  0  0  0  0  0  0  0  0  0
    0.4209    1.3361    9.3565 H   0  0  0  0  0  0  0  0  0  0  0  0
   -1.1564    0.9757    7.1862 H   0  0  0  0  0  0  0  0  0  0  0  0
   -1.8205    2.3040    7.9310 H   0  0  0  0  0  0  0  0  0  0  0  0
   -2.5660    1.9334    5.5781 H   0  0  0  0  0  0  0  0  0  0  0  0
   -2.2420    3.5200    6.1491 H   0  0  0  0  0  0  0  0  0  0  0  0
   -1.3795    4.0428    2.7599 H   0  0  0  0  0  0  0  0  0  0  0  0
   -1.9315    4.7973    4.2504 H   0  0  0  0  0  0  0  0  0  0  0  0
   -2.7715    3.4063    3.5911 H   0  0  0  0  0  0  0  0  0  0  0  0
   -1.6920    1.2403    3.4862 H   0  0  0  0  0  0  0  0  0  0  0  0
   -0.2994    1.9058    2.7169 H   0  0  0  0  0  0  0  0  0  0  0  0
    0.5274   -0.0082    1.8649 H   0  0  0  0  0  0  0  0  0  0  0  0
    2.2243   -0.3272    0.7349 H   0  0  0  0  0  0  0  0  0  0  0  0
    0.2135   -1.9987    2.8896 H   0  0  0  0  0  0  0  0  0  0  0  0
    1.9382   -2.4145    2.6000 H   0  0  0  0  0  0  0  0  0  0  0  0
    2.7332   -1.2669    4.4356 H   0  0  0  0  0  0  0  0  0  0  0  0
   -0.8475   -2.9627    6.1635 H   0  0  0  0  0  0  0  0  0  0  0  0
   -0.3004   -3.2830    4.5576 H   0  0  0  0  0  0  0  0  0  0  0  0
   -1.0503   -1.7289    4.9305 H   0  0  0  0  0  0  0  0  0  0  0  0
    1.5254   -3.6873    6.8296 H   0  0  0  0  0  0  0  0  0  0  0  0
    2.9366   -2.7937    6.2839 H   0  0  0  0  0  0  0  0  0  0  0  0
    2.0340   -3.7856    5.1576 H   0  0  0  0  0  0  0  0  0  0  0  0
    0.2128   -0.1894    6.4984 H   0  0  0  0  0  0  0  0  0  0  0  0
    0.8258   -2.2279    8.3179 H   0  0  0  0  0  0  0  0  0  0  0  0
    2.8411   -0.9698    7.7929 H   0  0  0  0  0  0  0  0  0  0  0  0
    3.3212    1.2875    7.8000 H   0  0  0  0  0  0  0  0  0  0  0  0
    2.2356    2.9143    7.2827 H   0  0  0  0  0  0  0  0  0  0  0  0
    2.5189    3.3215    5.3922 H   0  0  0  0  0  0  0  0  0  0  0  0
    4.3414    1.9681    4.9233 H   0  0  0  0  0  0  0  0  0  0  0  0
    4.2096    0.6177    3.8168 H   0  0  0  0  0  0  0  0  0  0  0  0
    3.7628    0.4038    5.4514 H   0  0  0  0  0  0  0  0  0  0  0  0
    3.0163    3.3742    3.1839 H   0  0  0  0  0  0  0  0  0  0  0  0
    1.7312    2.5190    2.3096 H   0  0  0  0  0  0  0  0  0  0  0  0
    3.3558    1.9428    2.3452 H   0  0  0  0  0  0  0  0  0  0  0  0
    0.8931    4.3519    2.8857 H   0  0  0  0  0  0  0  0  0  0  0  0
    1.9038    5.0837    4.1339 H   0  0  0  0  0  0  0  0  0  0  0  0
    0.2515    5.5593    3.9404 H   0  0  0  0  0  0  0  0  0  0  0  0
   -0.7589    4.5653    7.7915 H   0  0  0  0  0  0  0  0  0  0  0  0
    0.9668    4.6866    7.9070 H   0  0  0  0  0  0  0  0  0  0  0  0
  2  1  1  1
  1 30  1  0
  1 31  1  0
  1 32  1  0
  2 21  1  0
  2 29  1  0
  2  3  1  0
  3  4  1  0
  3 33  1  0
  3 34  1  0
  4  5  1  0
  4 35  1  0
  4 36  1  0
  5 26  1  0
  5  6  1  6
  5  7  1  0
  6 37  1  0
  6 38  1  0
  6 39  1  0
  7  8  1  0
  7 40  1  0
  7 41  1  0
  9  8  1  1
  9 13  1  0
  9 23  1  0
  9 10  1  0
 10 11  1  0
 10 12  1  0
 10 42  1  6
 11 43  1  0
 12 13  1  0
 12 44  1  0
 12 45  1  0
 13 14  1  0
 13 46  1  1
 14 15  1  0
 14 16  1  0
 14 17  1  0
 15 47  1  0
 15 48  1  0
 15 49  1  0
 16 50  1  0
 16 51  1  0
 16 52  1  0
 17 18  1  0
 17 19  1  0
 17 53  1  6
 18 54  1  0
 19 20  2  3
 19 55  1  0
 20 21  1  0
 20 56  1  0
 21 22  1  0
 21 57  1  1
 22 23  1  0
 22 26  1  0
 22 58  1  1
 23 24  1  0
 23 25  1  0
 24 59  1  0
 24 60  1  0
 24 61  1  0
 25 62  1  0
 25 63  1  0
 25 64  1  0
 26 27  1  6
 26 28  1  0
 27 65  1  0
 27 66  1  0
 27 67  1  0
 28 29  1  0
 29 68  1  0
 29 69  1  0
M  END
>  <i_m_ct_stereo_status>  (146) 
1

>  <s_m_source_file>  (146) 
/var/tmp/pbs.5083858.sched01/tmp120am4xz/605xn5hpsi.sdf

>  <i_m_source_file_index>  (146) 
3

>  <i_lp_mmshare_version>  (146) 
48012

>  <i_f3d_flags>  (146) 
0

>  <s_epik_input>  (146) 
W0NIM11DMShbQ0gzXSlbQ0BIXTJbQ0BdKFtDSDNdKShPW0NIMl0zKVtDQEBdKFtDSDNdKShbQ0gyXU80KVtDSDJdW0NIMl1bQ0BAXTMoW0NIM10pW0NASF0yL1tDSF09W0NIXVxbQ0BIXShbT0hdKUMoW0NIM10pKFtDSDNdKVtDQEhdKFtDQF0xNDUpW0NIMl1bQ0BASF01W09IXQ==

>  <s_epik_cmdline>  (146) 
J2VwaWtfcHl0aG9uJywgJy1waHQnLCAnMi4wJywgJy1waCcsICc3LjAnLCAnLXRuJywgJzgnLCAnLW1hJywgJzIwMCcsICctaW1hZScsICc8aW5maWxlLm1hZT4nLCAnLW9tYWUnLCAnPG91dGZpbGUubWFlPic=

>  <r_lp_tautomer_probability>  (146) 
1

>  <r_epik_Ionization_Penalty>  (146) 
3.02398e-07

>  <r_epik_Ionization_Penalty_Charging>  (146) 
0

>  <r_epik_Ionization_Penalty_Neutral>  (146) 
3.02398e-07

>  <r_epik_State_Penalty>  (146) 
-0

>  <r_epik_Charging_Adjusted_Penalty>  (146) 
0

>  <i_epik_Tot_Q>  (146) 
0

>  <i_epik_Tot_abs_Q>  (146) 
0

>  <s_lp_Force_Field>  (146) 
OPLS3e

>  <r_lp_Energy>  (146) 
124.21

>  <b_lp_Chiralities_Consistent>  (146) 
1

>  <s_lp_Variant>  (146) 
47:0-3

>  <s_i_glide_gridfile>  (146) 
pfpi4k_grid

>  <i_i_glide_lignum>  (146) 
3

>  <i_i_glide_rotatable_bonds>  (146) 
2

>  <r_i_docking_score>  (146) 
-2.64238

>  <r_i_glide_ligand_efficiency>  (146) 
-0.0911165

>  <r_i_glide_ligand_efficiency_sa>  (146) 
-0.279939

>  <r_i_glide_ligand_efficiency_ln>  (146) 
-0.605038

>  <r_i_glide_gscore>  (146) 
-2.64238

>  <r_i_glide_lipo>  (146) 
-0.0478437

>  <r_i_glide_hbond>  (146) 
-0.112635

>  <r_i_glide_metal>  (146) 
-0

>  <r_i_glide_rewards>  (146) 
-0.650572

>  <r_i_glide_evdw>  (146) 
-22.9008

>  <r_i_glide_ecoul>  (146) 
-4.57524

>  <r_i_glide_erotb>  (146) 
0

>  <r_i_glide_esite>  (146) 
0

>  <r_i_glide_emodel>  (146) 
-31.8303

>  <r_i_glide_energy>  (146) 
-27.4761

>  <r_i_glide_einternal>  (146) 
1.37805

>  <r_i_glide_intrahb_reward>  (146) 
-0

>  <i_i_glide_confnum>  (146) 
2

>  <i_i_glide_posenum>  (146) 
11

>  <r_i_glide_eff_state_penalty>  (146) 
0

>  <ligand_id>  (146) 
47

>  <original_smiles>  (146) 
CC12CCC3(C)COC45C(O)CC4C(C)(C)C(O)C=CC1C(C5(C)C)C3(C)OC2

>  <smiles>  (146) 
[H]OC1([H])C([H])=C([H])C2([H])C3([H])C4(C([H])([H])[H])OC([H])([H])C2(C([H])([H])[H])C([H])([H])C([H])([H])C4(C([H])([H])[H])C([H])([H])OC2(C([H])(O[H])C([H])([H])C2([H])C1(C([H])([H])[H])C([H])([H])[H])C3(C([H])([H])[H])C([H])([H])[H]

$$$$
47:2:2
     RDKit          3D

 69 73  0  0  1  0  0  0  0  0999 V2000
   -0.7896    2.4096    8.7435 C   0  0  0  0  0  0  0  0  0  0  0  0
   -0.6971    2.7849    7.2407 C   0  0  2  0  0  0  0  0  0  0  0  0
   -1.8398    2.0541    6.4802 C   0  0  0  0  0  0  0  0  0  0  0  0
   -2.2879    2.6486    5.1281 C   0  0  0  0  0  0  0  0  0  0  0  0
   -1.2704    3.1870    4.0967 C   0  0  2  0  0  0  0  0  0  0  0  0
   -2.1597    4.0586    3.1696 C   0  0  0  0  0  0  0  0  0  0  0  0
   -0.7464    2.0577    3.1672 C   0  0  0  0  0  0  0  0  0  0  0  0
   -0.0197    1.0385    3.8338 O   0  0  0  0  0  0  0  0  0  0  0  0
    1.4049    1.0081    3.6985 C   0  0  2  0  0  0  0  0  0  0  0  0
    1.8064    0.5609    2.2379 C   0  0  1  0  0  0  0  0  0  0  0  0
    3.0613    0.9072    1.6937 O   0  0  0  0  0  0  0  0  0  0  0  0
    1.7661   -0.8875    2.6518 C   0  0  0  0  0  0  0  0  0  0  0  0
    1.8292   -0.4604    4.1298 C   0  0  2  0  0  0  0  0  0  0  0  0
    1.1176   -1.4000    5.1654 C   0  0  0  0  0  0  0  0  0  0  0  0
   -0.0841   -2.1436    4.5188 C   0  0  0  0  0  0  0  0  0  0  0  0
    2.1134   -2.4952    5.6136 C   0  0  0  0  0  0  0  0  0  0  0  0
    0.5720   -0.6201    6.3861 C   0  0  1  0  0  0  0  0  0  0  0  0
   -0.1449   -1.4520    7.2824 O   0  0  0  0  0  0  0  0  0  0  0  0
    1.5852    0.1512    7.1846 C   0  0  0  0  0  0  0  0  0  0  0  0
    1.6358    1.4827    7.3380 C   0  0  0  0  0  0  0  0  0  0  0  0
    0.7662    2.5848    6.7280 C   0  0  1  0  0  0  0  0  0  0  0  0
    1.1137    3.1782    5.3170 C   0  0  1  0  0  0  0  0  0  0  0  0
    2.0422    2.3436    4.2980 C   0  0  0  0  0  0  0  0  0  0  0  0
    3.4358    2.0520    4.9353 C   0  0  0  0  0  0  0  0  0  0  0  0
    2.4690    3.3250    3.1631 C   0  0  0  0  0  0  0  0  0  0  0  0
   -0.1221    4.0262    4.7700 C   0  0  1  0  0  0  0  0  0  0  0  0
    0.3056    5.2568    3.9200 C   0  0  0  0  0  0  0  0  0  0  0  0
   -0.7009    4.8230    5.8215 O   0  0  0  0  0  0  0  0  0  0  0  0
   -0.9747    4.2895    7.1160 C   0  0  0  0  0  0  0  0  0  0  0  0
   -1.7497    2.6990    9.1747 H   0  0  0  0  0  0  0  0  0  0  0  0
   -0.0180    2.9185    9.3272 H   0  0  0  0  0  0  0  0  0  0  0  0
   -0.6686    1.3374    8.9035 H   0  0  0  0  0  0  0  0  0  0  0  0
   -1.7399    0.9828    6.4286 H   0  0  0  0  0  0  0  0  0  0  0  0
   -2.7237    2.1287    7.1165 H   0  0  0  0  0  0  0  0  0  0  0  0
   -2.9077    1.9356    4.5911 H   0  0  0  0  0  0  0  0  0  0  0  0
   -2.9749    3.4551    5.3894 H   0  0  0  0  0  0  0  0  0  0  0  0
   -1.6197    4.4220    2.2975 H   0  0  0  0  0  0  0  0  0  0  0  0
   -2.5600    4.9236    3.6880 H   0  0  0  0  0  0  0  0  0  0  0  0
   -3.0120    3.4985    2.7806 H   0  0  0  0  0  0  0  0  0  0  0  0
   -1.6032    1.5374    2.7354 H   0  0  0  0  0  0  0  0  0  0  0  0
   -0.2110    2.4571    2.3087 H   0  0  0  0  0  0  0  0  0  0  0  0
    1.0419    0.7767    1.4916 H   0  0  0  0  0  0  0  0  0  0  0  0
    3.3151    1.7331    2.0773 H   0  0  0  0  0  0  0  0  0  0  0  0
    0.8381   -1.3357    2.2952 H   0  0  0  0  0  0  0  0  0  0  0  0
    2.6336   -1.4703    2.3328 H   0  0  0  0  0  0  0  0  0  0  0  0
    2.8945   -0.4195    4.3684 H   0  0  0  0  0  0  0  0  0  0  0  0
   -0.6341   -2.7586    5.2296 H   0  0  0  0  0  0  0  0  0  0  0  0
    0.2352   -2.8345    3.7384 H   0  0  0  0  0  0  0  0  0  0  0  0
   -0.7960   -1.4417    4.0841 H   0  0  0  0  0  0  0  0  0  0  0  0
    1.6552   -3.2079    6.2982 H   0  0  0  0  0  0  0  0  0  0  0  0
    2.9871   -2.0768    6.1095 H   0  0  0  0  0  0  0  0  0  0  0  0
    2.4750   -3.0664    4.7581 H   0  0  0  0  0  0  0  0  0  0  0  0
   -0.1023    0.0896    5.9606 H   0  0  0  0  0  0  0  0  0  0  0  0
    0.4780   -2.0401    7.6819 H   0  0  0  0  0  0  0  0  0  0  0  0
    2.3293   -0.4424    7.6934 H   0  0  0  0  0  0  0  0  0  0  0  0
    2.4434    1.8478    7.9560 H   0  0  0  0  0  0  0  0  0  0  0  0
    1.2359    3.3506    7.3479 H   0  0  0  0  0  0  0  0  0  0  0  0
    1.8029    3.9803    5.5861 H   0  0  0  0  0  0  0  0  0  0  0  0
    3.8635    2.9449    5.3954 H   0  0  0  0  0  0  0  0  0  0  0  0
    4.1570    1.7057    4.1931 H   0  0  0  0  0  0  0  0  0  0  0  0
    3.4468    1.2711    5.6852 H   0  0  0  0  0  0  0  0  0  0  0  0
    2.6713    4.3265    3.5375 H   0  0  0  0  0  0  0  0  0  0  0  0
    1.7438    3.3840    2.3577 H   0  0  0  0  0  0  0  0  0  0  0  0
    3.4132    3.0784    2.6893 H   0  0  0  0  0  0  0  0  0  0  0  0
    0.5321    5.0208    2.8825 H   0  0  0  0  0  0  0  0  0  0  0  0
    1.1693    5.7608    4.3508 H   0  0  0  0  0  0  0  0  0  0  0  0
   -0.4734    6.0154    3.8654 H   0  0  0  0  0  0  0  0  0  0  0  0
   -2.0139    4.5097    7.3660 H   0  0  0  0  0  0  0  0  0  0  0  0
   -0.3831    4.8574    7.8319 H   0  0  0  0  0  0  0  0  0  0  0  0
  2  1  1  1
  1 30  1  0
  1 31  1  0
  1 32  1  0
  2 21  1  0
  2 29  1  0
  2  3  1  0
  3  4  1  0
  3 33  1  0
  3 34  1  0
  4  5  1  0
  4 35  1  0
  4 36  1  0
  5 26  1  0
  5  6  1  6
  5  7  1  0
  6 37  1  0
  6 38  1  0
  6 39  1  0
  7  8  1  0
  7 40  1  0
  7 41  1  0
  9  8  1  6
  9 13  1  0
  9 23  1  0
  9 10  1  0
 10 11  1  0
 10 12  1  0
 10 42  1  6
 11 43  1  0
 12 13  1  0
 12 44  1  0
 12 45  1  0
 13 14  1  0
 13 46  1  1
 14 15  1  0
 14 16  1  0
 14 17  1  0
 15 47  1  0
 15 48  1  0
 15 49  1  0
 16 50  1  0
 16 51  1  0
 16 52  1  0
 17 18  1  0
 17 19  1  0
 17 53  1  6
 18 54  1  0
 19 20  2  3
 19 55  1  0
 20 21  1  0
 20 56  1  0
 21 22  1  0
 21 57  1  1
 22 23  1  0
 22 26  1  0
 22 58  1  1
 23 24  1  0
 23 25  1  0
 24 59  1  0
 24 60  1  0
 24 61  1  0
 25 62  1  0
 25 63  1  0
 25 64  1  0
 26 27  1  6
 26 28  1  0
 27 65  1  0
 27 66  1  0
 27 67  1  0
 28 29  1  0
 29 68  1  0
 29 69  1  0
M  END
>  <i_m_ct_stereo_status>  (147) 
1

>  <s_m_source_file>  (147) 
/var/tmp/pbs.5083858.sched01/tmp120am4xz/605xn5hpsi.sdf

>  <i_m_source_file_index>  (147) 
3

>  <i_lp_mmshare_version>  (147) 
48012

>  <i_f3d_flags>  (147) 
0

>  <s_epik_input>  (147) 
W0NIM11DMShbQ0gzXSlbQ0BIXTJbQ0BdKFtDSDNdKShPW0NIMl0zKVtDQEBdKFtDSDNdKShbQ0gyXU80KVtDSDJdW0NIMl1bQ0BAXTMoW0NIM10pW0NASF0yL1tDSF09W0NIXVxbQ0BIXShbT0hdKUMoW0NIM10pKFtDSDNdKVtDQEhdKFtDQF0xNDUpW0NIMl1bQ0BASF01W09IXQ==

>  <s_epik_cmdline>  (147) 
J2VwaWtfcHl0aG9uJywgJy1waHQnLCAnMi4wJywgJy1waCcsICc3LjAnLCAnLXRuJywgJzgnLCAnLW1hJywgJzIwMCcsICctaW1hZScsICc8aW5maWxlLm1hZT4nLCAnLW9tYWUnLCAnPG91dGZpbGUubWFlPic=

>  <r_lp_tautomer_probability>  (147) 
1

>  <r_epik_Ionization_Penalty>  (147) 
3.02398e-07

>  <r_epik_Ionization_Penalty_Charging>  (147) 
0

>  <r_epik_Ionization_Penalty_Neutral>  (147) 
3.02398e-07

>  <r_epik_State_Penalty>  (147) 
-0

>  <r_epik_Charging_Adjusted_Penalty>  (147) 
0

>  <i_epik_Tot_Q>  (147) 
0

>  <i_epik_Tot_abs_Q>  (147) 
0

>  <s_lp_Force_Field>  (147) 
OPLS3e

>  <r_lp_Energy>  (147) 
124.21

>  <b_lp_Chiralities_Consistent>  (147) 
1

>  <s_lp_Variant>  (147) 
47:0-3

>  <s_i_glide_gridfile>  (147) 
pfpi4k_grid

>  <i_i_glide_lignum>  (147) 
3

>  <i_i_glide_rotatable_bonds>  (147) 
2

>  <r_i_docking_score>  (147) 
-2.6088

>  <r_i_glide_ligand_efficiency>  (147) 
-0.0899587

>  <r_i_glide_ligand_efficiency_sa>  (147) 
-0.276382

>  <r_i_glide_ligand_efficiency_ln>  (147) 
-0.59735

>  <r_i_glide_gscore>  (147) 
-2.6088

>  <r_i_glide_lipo>  (147) 
-0.0259233

>  <r_i_glide_hbond>  (147) 
-0.046283

>  <r_i_glide_metal>  (147) 
-0

>  <r_i_glide_rewards>  (147) 
-0.650572

>  <r_i_glide_evdw>  (147) 
-23.791

>  <r_i_glide_ecoul>  (147) 
-4.64317

>  <r_i_glide_erotb>  (147) 
0

>  <r_i_glide_esite>  (147) 
0

>  <r_i_glide_emodel>  (147) 
-32.5308

>  <r_i_glide_energy>  (147) 
-28.4342

>  <r_i_glide_einternal>  (147) 
1.82271

>  <r_i_glide_intrahb_reward>  (147) 
-0

>  <i_i_glide_confnum>  (147) 
2

>  <i_i_glide_posenum>  (147) 
28

>  <r_i_glide_eff_state_penalty>  (147) 
0

>  <ligand_id>  (147) 
47

>  <original_smiles>  (147) 
CC12CCC3(C)COC45C(O)CC4C(C)(C)C(O)C=CC1C(C5(C)C)C3(C)OC2

>  <smiles>  (147) 
[H]OC1([H])C([H])=C([H])C2([H])C3([H])C4(C([H])([H])[H])OC([H])([H])C2(C([H])([H])[H])C([H])([H])C([H])([H])C4(C([H])([H])[H])C([H])([H])OC2(C([H])(O[H])C([H])([H])C2([H])C1(C([H])([H])[H])C([H])([H])[H])C3(C([H])([H])[H])C([H])([H])[H]

$$$$
47:3:0
     RDKit          3D

 69 73  0  0  1  0  0  0  0  0999 V2000
    0.6834    2.4591    9.1892 C   0  0  0  0  0  0  0  0  0  0  0  0
    0.3764    2.6345    7.6792 C   0  0  2  0  0  0  0  0  0  0  0  0
   -0.9273    1.8523    7.3294 C   0  0  0  0  0  0  0  0  0  0  0  0
   -1.7999    2.4345    6.2175 C   0  0  0  0  0  0  0  0  0  0  0  0
   -1.1119    2.6778    4.8517 C   0  0  2  0  0  0  0  0  0  0  0  0
   -2.1706    3.4726    4.0399 C   0  0  0  0  0  0  0  0  0  0  0  0
   -0.9378    1.3367    4.0846 C   0  0  0  0  0  0  0  0  0  0  0  0
   -0.0556    0.3841    4.6829 O   0  0  0  0  0  0  0  0  0  0  0  0
    1.2321    0.1814    4.0851 C   0  0  2  0  0  0  0  0  0  0  0  0
    1.0632   -0.4838    2.6578 C   0  0  1  0  0  0  0  0  0  0  0  0
    2.0770   -0.3993    1.6759 O   0  0  0  0  0  0  0  0  0  0  0  0
    1.0089   -1.8445    3.2992 C   0  0  0  0  0  0  0  0  0  0  0  0
    1.7698   -1.2779    4.5040 C   0  0  2  0  0  0  0  0  0  0  0  0
    1.6010   -2.1288    5.8275 C   0  0  0  0  0  0  0  0  0  0  0  0
    0.1050   -2.3712    6.1815 C   0  0  0  0  0  0  0  0  0  0  0  0
    2.1846   -3.5420    5.5714 C   0  0  0  0  0  0  0  0  0  0  0  0
    2.3357   -1.5434    7.0760 C   0  0  1  0  0  0  0  0  0  0  0  0
    3.7350   -1.4838    6.8744 O   0  0  0  0  0  0  0  0  0  0  0  0
    1.7496   -0.1988    7.3888 C   0  0  0  0  0  0  0  0  0  0  0  0
    2.3396    0.9704    7.1270 C   0  0  0  0  0  0  0  0  0  0  0  0
    1.6408    2.2785    6.8379 C   0  0  1  0  0  0  0  0  0  0  0  0
    1.5412    2.6250    5.3035 C   0  0  1  0  0  0  0  0  0  0  0  0
    2.0593    1.5513    4.1911 C   0  0  0  0  0  0  0  0  0  0  0  0
    3.5830    1.2421    4.3546 C   0  0  0  0  0  0  0  0  0  0  0  0
    2.0885    2.2987    2.8218 C   0  0  0  0  0  0  0  0  0  0  0  0
    0.2327    3.4951    5.0150 C   0  0  1  0  0  0  0  0  0  0  0  0
    0.4450    4.5659    3.9010 C   0  0  0  0  0  0  0  0  0  0  0  0
    0.0409    4.4724    6.0548 O   0  0  0  0  0  0  0  0  0  0  0  0
    0.1423    4.1316    7.4336 C   0  0  0  0  0  0  0  0  0  0  0  0
   -0.1124    2.8766    9.8105 H   0  0  0  0  0  0  0  0  0  0  0  0
    1.6054    2.9755    9.4669 H   0  0  0  0  0  0  0  0  0  0  0  0
    0.7986    1.4118    9.4732 H   0  0  0  0  0  0  0  0  0  0  0  0
   -0.7564    0.8273    7.0467 H   0  0  0  0  0  0  0  0  0  0  0  0
   -1.5520    1.7948    8.2229 H   0  0  0  0  0  0  0  0  0  0  0  0
   -2.6381    1.7564    6.0796 H   0  0  0  0  0  0  0  0  0  0  0  0
   -2.2536    3.3589    6.5783 H   0  0  0  0  0  0  0  0  0  0  0  0
   -1.8773    3.6181    2.9992 H   0  0  0  0  0  0  0  0  0  0  0  0
   -2.3493    4.4541    4.4749 H   0  0  0  0  0  0  0  0  0  0  0  0
   -3.1288    2.9530    4.0154 H   0  0  0  0  0  0  0  0  0  0  0  0
   -1.9055    0.8325    4.0651 H   0  0  0  0  0  0  0  0  0  0  0  0
   -0.7170    1.5227    3.0365 H   0  0  0  0  0  0  0  0  0  0  0  0
    0.1172   -0.2512    2.1736 H   0  0  0  0  0  0  0  0  0  0  0  0
    1.6626   -0.5502    0.8265 H   0  0  0  0  0  0  0  0  0  0  0  0
   -0.0194   -2.1414    3.5035 H   0  0  0  0  0  0  0  0  0  0  0  0
    1.5460   -2.6230    2.7557 H   0  0  0  0  0  0  0  0  0  0  0  0
    2.8224   -1.3185    4.2141 H   0  0  0  0  0  0  0  0  0  0  0  0
    0.0062   -2.8590    7.1526 H   0  0  0  0  0  0  0  0  0  0  0  0
   -0.3863   -3.0266    5.4637 H   0  0  0  0  0  0  0  0  0  0  0  0
   -0.4755   -1.4527    6.2173 H   0  0  0  0  0  0  0  0  0  0  0  0
    2.1411   -4.1636    6.4657 H   0  0  0  0  0  0  0  0  0  0  0  0
    3.2270   -3.4991    5.2580 H   0  0  0  0  0  0  0  0  0  0  0  0
    1.6427   -4.0728    4.7892 H   0  0  0  0  0  0  0  0  0  0  0  0
    2.1682   -2.1821    7.9437 H   0  0  0  0  0  0  0  0  0  0  0  0
    3.9048   -0.9893    6.0883 H   0  0  0  0  0  0  0  0  0  0  0  0
    0.7180   -0.2579    7.6480 H   0  0  0  0  0  0  0  0  0  0  0  0
    3.3939    0.9965    6.9251 H   0  0  0  0  0  0  0  0  0  0  0  0
    2.3915    2.9712    7.2189 H   0  0  0  0  0  0  0  0  0  0  0  0
    2.3194    3.3841    5.2232 H   0  0  0  0  0  0  0  0  0  0  0  0
    4.1505    2.1271    4.6487 H   0  0  0  0  0  0  0  0  0  0  0  0
    4.0329    0.8762    3.4304 H   0  0  0  0  0  0  0  0  0  0  0  0
    3.8114    0.4486    5.0515 H   0  0  0  0  0  0  0  0  0  0  0  0
    2.4803    3.3095    2.9205 H   0  0  0  0  0  0  0  0  0  0  0  0
    1.1209    2.3374    2.3343 H   0  0  0  0  0  0  0  0  0  0  0  0
    2.7520    1.8620    2.0810 H   0  0  0  0  0  0  0  0  0  0  0  0
    0.3258    4.1889    2.8888 H   0  0  0  0  0  0  0  0  0  0  0  0
    1.4301    5.0309    3.9737 H   0  0  0  0  0  0  0  0  0  0  0  0
   -0.2665    5.3893    3.9784 H   0  0  0  0  0  0  0  0  0  0  0  0
   -0.7574    4.4759    7.9438 H   0  0  0  0  0  0  0  0  0  0  0  0
    0.9570    4.7199    7.8547 H   0  0  0  0  0  0  0  0  0  0  0  0
  2  1  1  1
  1 30  1  0
  1 31  1  0
  1 32  1  0
  2 21  1  0
  2 29  1  0
  2  3  1  0
  3  4  1  0
  3 33  1  0
  3 34  1  0
  4  5  1  0
  4 35  1  0
  4 36  1  0
  5 26  1  0
  5  6  1  6
  5  7  1  0
  6 37  1  0
  6 38  1  0
  6 39  1  0
  7  8  1  0
  7 40  1  0
  7 41  1  0
  9  8  1  1
  9 13  1  0
  9 23  1  0
  9 10  1  0
 10 11  1  0
 10 12  1  0
 10 42  1  6
 11 43  1  0
 12 13  1  0
 12 44  1  0
 12 45  1  0
 13 14  1  0
 13 46  1  6
 14 15  1  0
 14 16  1  0
 14 17  1  0
 15 47  1  0
 15 48  1  0
 15 49  1  0
 16 50  1  0
 16 51  1  0
 16 52  1  0
 17 18  1  0
 17 19  1  0
 17 53  1  1
 18 54  1  0
 19 20  2  3
 19 55  1  0
 20 21  1  0
 20 56  1  0
 21 22  1  0
 21 57  1  1
 22 23  1  0
 22 26  1  0
 22 58  1  1
 23 24  1  0
 23 25  1  0
 24 59  1  0
 24 60  1  0
 24 61  1  0
 25 62  1  0
 25 63  1  0
 25 64  1  0
 26 27  1  6
 26 28  1  0
 27 65  1  0
 27 66  1  0
 27 67  1  0
 28 29  1  0
 29 68  1  0
 29 69  1  0
M  END
>  <i_m_ct_stereo_status>  (148) 
1

>  <s_m_source_file>  (148) 
/var/tmp/pbs.5083858.sched01/tmp120am4xz/605xn5hpsi.sdf

>  <i_m_source_file_index>  (148) 
4

>  <i_lp_mmshare_version>  (148) 
48012

>  <i_f3d_flags>  (148) 
0

>  <s_epik_input>  (148) 
W0NIM11DMShbQ0gzXSlbQ0BIXTJbQ0BdKFtDSDNdKShPW0NIMl0zKVtDQEBdKFtDSDNdKShbQ0gyXU80KVtDSDJdW0NIMl1bQ0BAXTMoW0NIM10pW0NASF0yL1tDSF09W0NIXVxbQ0BIXShbT0hdKUMoW0NIM10pKFtDSDNdKVtDQEhdKFtDQF0xNDUpW0NIMl1bQ0BASF01W09IXQ==

>  <s_epik_cmdline>  (148) 
J2VwaWtfcHl0aG9uJywgJy1waHQnLCAnMi4wJywgJy1waCcsICc3LjAnLCAnLXRuJywgJzgnLCAnLW1hJywgJzIwMCcsICctaW1hZScsICc8aW5maWxlLm1hZT4nLCAnLW9tYWUnLCAnPG91dGZpbGUubWFlPic=

>  <r_lp_tautomer_probability>  (148) 
1

>  <r_epik_Ionization_Penalty>  (148) 
3.02398e-07

>  <r_epik_Ionization_Penalty_Charging>  (148) 
0

>  <r_epik_Ionization_Penalty_Neutral>  (148) 
3.02398e-07

>  <r_epik_State_Penalty>  (148) 
-0

>  <r_epik_Charging_Adjusted_Penalty>  (148) 
0

>  <i_epik_Tot_Q>  (148) 
0

>  <i_epik_Tot_abs_Q>  (148) 
0

>  <s_lp_Force_Field>  (148) 
OPLS3e

>  <r_lp_Energy>  (148) 
121.945

>  <b_lp_Chiralities_Consistent>  (148) 
1

>  <s_lp_Variant>  (148) 
47:0-4

>  <s_i_glide_gridfile>  (148) 
pfpi4k_grid

>  <i_i_glide_lignum>  (148) 
4

>  <i_i_glide_rotatable_bonds>  (148) 
2

>  <r_i_docking_score>  (148) 
-2.53313

>  <r_i_glide_ligand_efficiency>  (148) 
-0.0873492

>  <r_i_glide_ligand_efficiency_sa>  (148) 
-0.268364

>  <r_i_glide_ligand_efficiency_ln>  (148) 
-0.580022

>  <r_i_glide_gscore>  (148) 
-2.53313

>  <r_i_glide_lipo>  (148) 
-0.0428104

>  <r_i_glide_hbond>  (148) 
-0.16

>  <r_i_glide_metal>  (148) 
-0

>  <r_i_glide_rewards>  (148) 
-0.650572

>  <r_i_glide_evdw>  (148) 
-22.4185

>  <r_i_glide_ecoul>  (148) 
-3.72545

>  <r_i_glide_erotb>  (148) 
0

>  <r_i_glide_esite>  (148) 
0

>  <r_i_glide_emodel>  (148) 
-29.8253

>  <r_i_glide_energy>  (148) 
-26.144

>  <r_i_glide_einternal>  (148) 
1.32049

>  <r_i_glide_intrahb_reward>  (148) 
-0

>  <i_i_glide_confnum>  (148) 
1

>  <i_i_glide_posenum>  (148) 
6

>  <r_i_glide_eff_state_penalty>  (148) 
0

>  <ligand_id>  (148) 
47

>  <original_smiles>  (148) 
CC12CCC3(C)COC45C(O)CC4C(C)(C)C(O)C=CC1C(C5(C)C)C3(C)OC2

>  <smiles>  (148) 
[H]OC1([H])C([H])=C([H])C2([H])C3([H])C4(C([H])([H])[H])OC([H])([H])C2(C([H])([H])[H])C([H])([H])C([H])([H])C4(C([H])([H])[H])C([H])([H])OC2(C([H])(O[H])C([H])([H])C2([H])C1(C([H])([H])[H])C([H])([H])[H])C3(C([H])([H])[H])C([H])([H])[H]

$$$$
47:3:1
     RDKit          3D

 69 73  0  0  1  0  0  0  0  0999 V2000
   -0.8615    2.1580    8.6400 C   0  0  0  0  0  0  0  0  0  0  0  0
   -0.6865    2.6082    7.1670 C   0  0  2  0  0  0  0  0  0  0  0  0
   -1.7369    1.8751    6.2738 C   0  0  0  0  0  0  0  0  0  0  0  0
   -2.2491    2.6428    5.0544 C   0  0  0  0  0  0  0  0  0  0  0  0
   -1.1936    3.1604    4.0638 C   0  0  2  0  0  0  0  0  0  0  0  0
   -2.0270    4.0603    3.1169 C   0  0  0  0  0  0  0  0  0  0  0  0
   -0.6701    1.9954    3.1748 C   0  0  0  0  0  0  0  0  0  0  0  0
    0.0536    0.9738    3.8647 O   0  0  0  0  0  0  0  0  0  0  0  0
    1.4751    0.9226    3.6977 C   0  0  2  0  0  0  0  0  0  0  0  0
    1.8245    0.5463    2.2009 C   0  0  1  0  0  0  0  0  0  0  0  0
    3.1034    0.8349    1.6814 O   0  0  0  0  0  0  0  0  0  0  0  0
    1.6870   -0.9148    2.5372 C   0  0  0  0  0  0  0  0  0  0  0  0
    1.9844   -0.5736    4.0057 C   0  0  2  0  0  0  0  0  0  0  0  0
    1.4903   -1.6663    5.0347 C   0  0  0  0  0  0  0  0  0  0  0  0
   -0.0092   -2.0179    4.8320 C   0  0  0  0  0  0  0  0  0  0  0  0
    2.2518   -2.9856    4.7427 C   0  0  0  0  0  0  0  0  0  0  0  0
    1.7370   -1.3113    6.5338 C   0  0  1  0  0  0  0  0  0  0  0  0
    3.1169   -1.1717    6.8200 O   0  0  0  0  0  0  0  0  0  0  0  0
    0.9586   -0.0690    6.8621 C   0  0  0  0  0  0  0  0  0  0  0  0
    1.4931    1.1448    7.0153 C   0  0  0  0  0  0  0  0  0  0  0  0
    0.8053    2.4615    6.7409 C   0  0  1  0  0  0  0  0  0  0  0  0
    1.1696    3.0952    5.3443 C   0  0  1  0  0  0  0  0  0  0  0  0
    2.1047    2.2702    4.2995 C   0  0  0  0  0  0  0  0  0  0  0  0
    3.5193    1.9848    4.8923 C   0  0  0  0  0  0  0  0  0  0  0  0
    2.4939    3.2753    3.1682 C   0  0  0  0  0  0  0  0  0  0  0  0
   -0.0506    3.9696    4.7941 C   0  0  1  0  0  0  0  0  0  0  0  0
    0.4033    5.2380    4.0092 C   0  0  0  0  0  0  0  0  0  0  0  0
   -0.6443    4.7237    5.8688 O   0  0  0  0  0  0  0  0  0  0  0  0
   -0.9607    4.1204    7.1213 C   0  0  0  0  0  0  0  0  0  0  0  0
   -1.8452    2.4264    9.0296 H   0  0  0  0  0  0  0  0  0  0  0  0
   -0.1255    2.6372    9.2886 H   0  0  0  0  0  0  0  0  0  0  0  0
   -0.7463    1.0816    8.7624 H   0  0  0  0  0  0  0  0  0  0  0  0
   -1.3973    0.9247    5.8932 H   0  0  0  0  0  0  0  0  0  0  0  0
   -2.6077    1.6339    6.8852 H   0  0  0  0  0  0  0  0  0  0  0  0
   -2.9339    2.0144    4.4870 H   0  0  0  0  0  0  0  0  0  0  0  0
   -2.8746    3.4630    5.4072 H   0  0  0  0  0  0  0  0  0  0  0  0
   -1.4360    4.4263    2.2828 H   0  0  0  0  0  0  0  0  0  0  0  0
   -2.4366    4.9274    3.6282 H   0  0  0  0  0  0  0  0  0  0  0  0
   -2.8666    3.5184    2.6760 H   0  0  0  0  0  0  0  0  0  0  0  0
   -1.5267    1.4745    2.7472 H   0  0  0  0  0  0  0  0  0  0  0  0
   -0.1430    2.3826    2.3077 H   0  0  0  0  0  0  0  0  0  0  0  0
    1.0797    0.8364    1.4609 H   0  0  0  0  0  0  0  0  0  0  0  0
    3.2220    1.7714    1.7511 H   0  0  0  0  0  0  0  0  0  0  0  0
    0.6800   -1.2739    2.3278 H   0  0  0  0  0  0  0  0  0  0  0  0
    2.4413   -1.5514    2.0692 H   0  0  0  0  0  0  0  0  0  0  0  0
    3.0738   -0.5246    4.0703 H   0  0  0  0  0  0  0  0  0  0  0  0
   -0.3697   -2.6843    5.6156 H   0  0  0  0  0  0  0  0  0  0  0  0
   -0.1829   -2.5375    3.8913 H   0  0  0  0  0  0  0  0  0  0  0  0
   -0.6560   -1.1427    4.8268 H   0  0  0  0  0  0  0  0  0  0  0  0
    1.9825   -3.7684    5.4525 H   0  0  0  0  0  0  0  0  0  0  0  0
    3.3308   -2.8526    4.8010 H   0  0  0  0  0  0  0  0  0  0  0  0
    2.0339   -3.3704    3.7469 H   0  0  0  0  0  0  0  0  0  0  0  0
    1.3604   -2.1099    7.1743 H   0  0  0  0  0  0  0  0  0  0  0  0
    3.4845   -0.5416    6.2239 H   0  0  0  0  0  0  0  0  0  0  0  0
   -0.0905   -0.2073    6.7465 H   0  0  0  0  0  0  0  0  0  0  0  0
    2.5502    1.2409    7.1797 H   0  0  0  0  0  0  0  0  0  0  0  0
    1.3318    3.0902    7.4622 H   0  0  0  0  0  0  0  0  0  0  0  0
    1.8605    3.8792    5.6573 H   0  0  0  0  0  0  0  0  0  0  0  0
    3.8835    2.8123    5.5020 H   0  0  0  0  0  0  0  0  0  0  0  0
    4.2684    1.8116    4.1190 H   0  0  0  0  0  0  0  0  0  0  0  0
    3.5882    1.0817    5.4812 H   0  0  0  0  0  0  0  0  0  0  0  0
    2.7333    4.2599    3.5650 H   0  0  0  0  0  0  0  0  0  0  0  0
    1.7333    3.3725    2.4003 H   0  0  0  0  0  0  0  0  0  0  0  0
    3.4043    3.0311    2.6318 H   0  0  0  0  0  0  0  0  0  0  0  0
    0.6374    5.0629    2.9619 H   0  0  0  0  0  0  0  0  0  0  0  0
    1.2671    5.7082    4.4799 H   0  0  0  0  0  0  0  0  0  0  0  0
   -0.3678    6.0083    3.9911 H   0  0  0  0  0  0  0  0  0  0  0  0
   -2.0042    4.3318    7.3598 H   0  0  0  0  0  0  0  0  0  0  0  0
   -0.3796    4.6390    7.8827 H   0  0  0  0  0  0  0  0  0  0  0  0
  2  1  1  1
  1 30  1  0
  1 31  1  0
  1 32  1  0
  2 21  1  0
  2 29  1  0
  2  3  1  0
  3  4  1  0
  3 33  1  0
  3 34  1  0
  4  5  1  0
  4 35  1  0
  4 36  1  0
  5 26  1  0
  5  6  1  6
  5  7  1  0
  6 37  1  0
  6 38  1  0
  6 39  1  0
  7  8  1  0
  7 40  1  0
  7 41  1  0
  9  8  1  6
  9 13  1  0
  9 23  1  0
  9 10  1  0
 10 11  1  0
 10 12  1  0
 10 42  1  6
 11 43  1  0
 12 13  1  0
 12 44  1  0
 12 45  1  0
 13 14  1  0
 13 46  1  6
 14 15  1  0
 14 16  1  0
 14 17  1  0
 15 47  1  0
 15 48  1  0
 15 49  1  0
 16 50  1  0
 16 51  1  0
 16 52  1  0
 17 18  1  0
 17 19  1  0
 17 53  1  1
 18 54  1  0
 19 20  2  3
 19 55  1  0
 20 21  1  0
 20 56  1  0
 21 22  1  0
 21 57  1  1
 22 23  1  0
 22 26  1  0
 22 58  1  1
 23 24  1  0
 23 25  1  0
 24 59  1  0
 24 60  1  0
 24 61  1  0
 25 62  1  0
 25 63  1  0
 25 64  1  0
 26 27  1  6
 26 28  1  0
 27 65  1  0
 27 66  1  0
 27 67  1  0
 28 29  1  0
 29 68  1  0
 29 69  1  0
M  END
>  <i_m_ct_stereo_status>  (149) 
1

>  <s_m_source_file>  (149) 
/var/tmp/pbs.5083858.sched01/tmp120am4xz/605xn5hpsi.sdf

>  <i_m_source_file_index>  (149) 
4

>  <i_lp_mmshare_version>  (149) 
48012

>  <i_f3d_flags>  (149) 
0

>  <s_epik_input>  (149) 
W0NIM11DMShbQ0gzXSlbQ0BIXTJbQ0BdKFtDSDNdKShPW0NIMl0zKVtDQEBdKFtDSDNdKShbQ0gyXU80KVtDSDJdW0NIMl1bQ0BAXTMoW0NIM10pW0NASF0yL1tDSF09W0NIXVxbQ0BIXShbT0hdKUMoW0NIM10pKFtDSDNdKVtDQEhdKFtDQF0xNDUpW0NIMl1bQ0BASF01W09IXQ==

>  <s_epik_cmdline>  (149) 
J2VwaWtfcHl0aG9uJywgJy1waHQnLCAnMi4wJywgJy1waCcsICc3LjAnLCAnLXRuJywgJzgnLCAnLW1hJywgJzIwMCcsICctaW1hZScsICc8aW5maWxlLm1hZT4nLCAnLW9tYWUnLCAnPG91dGZpbGUubWFlPic=

>  <r_lp_tautomer_probability>  (149) 
1

>  <r_epik_Ionization_Penalty>  (149) 
3.02398e-07

>  <r_epik_Ionization_Penalty_Charging>  (149) 
0

>  <r_epik_Ionization_Penalty_Neutral>  (149) 
3.02398e-07

>  <r_epik_State_Penalty>  (149) 
-0

>  <r_epik_Charging_Adjusted_Penalty>  (149) 
0

>  <i_epik_Tot_Q>  (149) 
0

>  <i_epik_Tot_abs_Q>  (149) 
0

>  <s_lp_Force_Field>  (149) 
OPLS3e

>  <r_lp_Energy>  (149) 
121.945

>  <b_lp_Chiralities_Consistent>  (149) 
1

>  <s_lp_Variant>  (149) 
47:0-4

>  <s_i_glide_gridfile>  (149) 
pfpi4k_grid

>  <i_i_glide_lignum>  (149) 
4

>  <i_i_glide_rotatable_bonds>  (149) 
2

>  <r_i_docking_score>  (149) 
-2.19144

>  <r_i_glide_ligand_efficiency>  (149) 
-0.0755669

>  <r_i_glide_ligand_efficiency_sa>  (149) 
-0.232165

>  <r_i_glide_ligand_efficiency_ln>  (149) 
-0.501784

>  <r_i_glide_gscore>  (149) 
-2.19144

>  <r_i_glide_lipo>  (149) 
0

>  <r_i_glide_hbond>  (149) 
-0.00349514

>  <r_i_glide_metal>  (149) 
-0

>  <r_i_glide_rewards>  (149) 
-0.650572

>  <r_i_glide_evdw>  (149) 
-24.6475

>  <r_i_glide_ecoul>  (149) 
-2.03332

>  <r_i_glide_erotb>  (149) 
0

>  <r_i_glide_esite>  (149) 
0

>  <r_i_glide_emodel>  (149) 
-29.7093

>  <r_i_glide_energy>  (149) 
-26.6808

>  <r_i_glide_einternal>  (149) 
1.37875

>  <r_i_glide_intrahb_reward>  (149) 
-0

>  <i_i_glide_confnum>  (149) 
2

>  <i_i_glide_posenum>  (149) 
18

>  <r_i_glide_eff_state_penalty>  (149) 
0

>  <ligand_id>  (149) 
47

>  <original_smiles>  (149) 
CC12CCC3(C)COC45C(O)CC4C(C)(C)C(O)C=CC1C(C5(C)C)C3(C)OC2

>  <smiles>  (149) 
[H]OC1([H])C([H])=C([H])C2([H])C3([H])C4(C([H])([H])[H])OC([H])([H])C2(C([H])([H])[H])C([H])([H])C([H])([H])C4(C([H])([H])[H])C([H])([H])OC2(C([H])(O[H])C([H])([H])C2([H])C1(C([H])([H])[H])C([H])([H])[H])C3(C([H])([H])[H])C([H])([H])[H]

$$$$
47:3:2
     RDKit          3D

 69 73  0  0  1  0  0  0  0  0999 V2000
   -0.8710    2.1308    8.5993 C   0  0  0  0  0  0  0  0  0  0  0  0
   -0.6922    2.5934    7.1307 C   0  0  2  0  0  0  0  0  0  0  0  0
   -1.7392    1.8649    6.2304 C   0  0  0  0  0  0  0  0  0  0  0  0
   -2.2530    2.6350    5.0158 C   0  0  0  0  0  0  0  0  0  0  0  0
   -1.1940    3.1617    4.0309 C   0  0  2  0  0  0  0  0  0  0  0  0
   -2.0290    4.0704    3.0912 C   0  0  0  0  0  0  0  0  0  0  0  0
   -0.6626    2.0083    3.1326 C   0  0  0  0  0  0  0  0  0  0  0  0
    0.0602    0.9854    3.8180 O   0  0  0  0  0  0  0  0  0  0  0  0
    1.4802    0.9376    3.6492 C   0  0  2  0  0  0  0  0  0  0  0  0
    1.8257    0.5649    2.1534 C   0  0  1  0  0  0  0  0  0  0  0  0
    3.0873    0.8780    1.6098 O   0  0  0  0  0  0  0  0  0  0  0  0
    1.6987   -0.8965    2.4797 C   0  0  0  0  0  0  0  0  0  0  0  0
    1.9894   -0.5607    3.9501 C   0  0  2  0  0  0  0  0  0  0  0  0
    1.4931   -1.6621    4.9697 C   0  0  0  0  0  0  0  0  0  0  0  0
   -0.0054   -2.0144    4.7630 C   0  0  0  0  0  0  0  0  0  0  0  0
    2.2560   -2.9789    4.6717 C   0  0  0  0  0  0  0  0  0  0  0  0
    1.7357   -1.3195    6.4732 C   0  0  1  0  0  0  0  0  0  0  0  0
    3.1146   -1.1822    6.7636 O   0  0  0  0  0  0  0  0  0  0  0  0
    0.9551   -0.0818    6.8091 C   0  0  0  0  0  0  0  0  0  0  0  0
    1.4886    1.1333    6.9729 C   0  0  0  0  0  0  0  0  0  0  0  0
    0.8010    2.4513    6.7069 C   0  0  1  0  0  0  0  0  0  0  0  0
    1.1670    3.0964    5.3158 C   0  0  1  0  0  0  0  0  0  0  0  0
    2.1058    2.2798    4.2664 C   0  0  0  0  0  0  0  0  0  0  0  0
    3.5185    1.9917    4.8638 C   0  0  0  0  0  0  0  0  0  0  0  0
    2.4953    3.2922    3.1449 C   0  0  0  0  0  0  0  0  0  0  0  0
   -0.0543    3.9707    4.7687 C   0  0  1  0  0  0  0  0  0  0  0  0
    0.4001    5.2464    3.9939 C   0  0  0  0  0  0  0  0  0  0  0  0
   -0.6526    4.7171    5.8469 O   0  0  0  0  0  0  0  0  0  0  0  0
   -0.9684    4.1047    7.0953 C   0  0  0  0  0  0  0  0  0  0  0  0
   -1.8564    2.3950    8.9872 H   0  0  0  0  0  0  0  0  0  0  0  0
   -0.1377    2.6056    9.2525 H   0  0  0  0  0  0  0  0  0  0  0  0
   -0.7549    1.0537    8.7126 H   0  0  0  0  0  0  0  0  0  0  0  0
   -1.3958    0.9184    5.8448 H   0  0  0  0  0  0  0  0  0  0  0  0
   -2.6099    1.6200    6.8400 H   0  0  0  0  0  0  0  0  0  0  0  0
   -2.9519    2.0085    4.4604 H   0  0  0  0  0  0  0  0  0  0  0  0
   -2.8771    3.4538    5.3706 H   0  0  0  0  0  0  0  0  0  0  0  0
   -1.4370    4.4479    2.2606 H   0  0  0  0  0  0  0  0  0  0  0  0
   -2.4430    4.9308    3.6106 H   0  0  0  0  0  0  0  0  0  0  0  0
   -2.8634    3.5259    2.6417 H   0  0  0  0  0  0  0  0  0  0  0  0
   -1.5184    1.4925    2.7015 H   0  0  0  0  0  0  0  0  0  0  0  0
   -0.1350    2.4034    2.2695 H   0  0  0  0  0  0  0  0  0  0  0  0
    1.0643    0.8416    1.4234 H   0  0  0  0  0  0  0  0  0  0  0  0
    3.7228    0.8171    2.3081 H   0  0  0  0  0  0  0  0  0  0  0  0
    0.6910   -1.2524    2.2657 H   0  0  0  0  0  0  0  0  0  0  0  0
    2.4538   -1.5294    2.0095 H   0  0  0  0  0  0  0  0  0  0  0  0
    3.0781   -0.5127    4.0190 H   0  0  0  0  0  0  0  0  0  0  0  0
   -0.3669   -2.6884    5.5407 H   0  0  0  0  0  0  0  0  0  0  0  0
   -0.1756   -2.5267    3.8180 H   0  0  0  0  0  0  0  0  0  0  0  0
   -0.6529   -1.1398    4.7620 H   0  0  0  0  0  0  0  0  0  0  0  0
    1.9860   -3.7678    5.3750 H   0  0  0  0  0  0  0  0  0  0  0  0
    3.3349   -2.8457    4.7336 H   0  0  0  0  0  0  0  0  0  0  0  0
    2.0404   -3.3560    3.6726 H   0  0  0  0  0  0  0  0  0  0  0  0
    1.3578   -2.1233    7.1080 H   0  0  0  0  0  0  0  0  0  0  0  0
    3.4837   -0.5477    6.1722 H   0  0  0  0  0  0  0  0  0  0  0  0
   -0.0927   -0.2197    6.6892 H   0  0  0  0  0  0  0  0  0  0  0  0
    2.5447    1.2284    7.1421 H   0  0  0  0  0  0  0  0  0  0  0  0
    1.3254    3.0739    7.4339 H   0  0  0  0  0  0  0  0  0  0  0  0
    1.8562    3.8782    5.6373 H   0  0  0  0  0  0  0  0  0  0  0  0
    3.8789    2.8163    5.4809 H   0  0  0  0  0  0  0  0  0  0  0  0
    4.2688    1.8298    4.0901 H   0  0  0  0  0  0  0  0  0  0  0  0
    3.5863    1.0835    5.4449 H   0  0  0  0  0  0  0  0  0  0  0  0
    2.7395    4.2744    3.5455 H   0  0  0  0  0  0  0  0  0  0  0  0
    1.7356    3.3934    2.3777 H   0  0  0  0  0  0  0  0  0  0  0  0
    3.3968    3.0386    2.5981 H   0  0  0  0  0  0  0  0  0  0  0  0
    0.6373    5.0787    2.9463 H   0  0  0  0  0  0  0  0  0  0  0  0
    1.2617    5.7142    4.4700 H   0  0  0  0  0  0  0  0  0  0  0  0
   -0.3727    6.0147    3.9802 H   0  0  0  0  0  0  0  0  0  0  0  0
   -2.0133    4.3115    7.3333 H   0  0  0  0  0  0  0  0  0  0  0  0
   -0.3899    4.6189    7.8616 H   0  0  0  0  0  0  0  0  0  0  0  0
  2  1  1  1
  1 30  1  0
  1 31  1  0
  1 32  1  0
  2 21  1  0
  2 29  1  0
  2  3  1  0
  3  4  1  0
  3 33  1  0
  3 34  1  0
  4  5  1  0
  4 35  1  0
  4 36  1  0
  5 26  1  0
  5  6  1  6
  5  7  1  0
  6 37  1  0
  6 38  1  0
  6 39  1  0
  7  8  1  0
  7 40  1  0
  7 41  1  0
  9  8  1  6
  9 13  1  0
  9 23  1  0
  9 10  1  0
 10 11  1  0
 10 12  1  0
 10 42  1  6
 11 43  1  0
 12 13  1  0
 12 44  1  0
 12 45  1  0
 13 14  1  0
 13 46  1  6
 14 15  1  0
 14 16  1  0
 14 17  1  0
 15 47  1  0
 15 48  1  0
 15 49  1  0
 16 50  1  0
 16 51  1  0
 16 52  1  0
 17 18  1  0
 17 19  1  0
 17 53  1  1
 18 54  1  0
 19 20  2  3
 19 55  1  0
 20 21  1  0
 20 56  1  0
 21 22  1  0
 21 57  1  1
 22 23  1  0
 22 26  1  0
 22 58  1  1
 23 24  1  0
 23 25  1  0
 24 59  1  0
 24 60  1  0
 24 61  1  0
 25 62  1  0
 25 63  1  0
 25 64  1  0
 26 27  1  6
 26 28  1  0
 27 65  1  0
 27 66  1  0
 27 67  1  0
 28 29  1  0
 29 68  1  0
 29 69  1  0
M  END
>  <i_m_ct_stereo_status>  (150) 
1

>  <s_m_source_file>  (150) 
/var/tmp/pbs.5083858.sched01/tmp120am4xz/605xn5hpsi.sdf

>  <i_m_source_file_index>  (150) 
4

>  <i_lp_mmshare_version>  (150) 
48012

>  <i_f3d_flags>  (150) 
0

>  <s_epik_input>  (150) 
W0NIM11DMShbQ0gzXSlbQ0BIXTJbQ0BdKFtDSDNdKShPW0NIMl0zKVtDQEBdKFtDSDNdKShbQ0gyXU80KVtDSDJdW0NIMl1bQ0BAXTMoW0NIM10pW0NASF0yL1tDSF09W0NIXVxbQ0BIXShbT0hdKUMoW0NIM10pKFtDSDNdKVtDQEhdKFtDQF0xNDUpW0NIMl1bQ0BASF01W09IXQ==

>  <s_epik_cmdline>  (150) 
J2VwaWtfcHl0aG9uJywgJy1waHQnLCAnMi4wJywgJy1waCcsICc3LjAnLCAnLXRuJywgJzgnLCAnLW1hJywgJzIwMCcsICctaW1hZScsICc8aW5maWxlLm1hZT4nLCAnLW9tYWUnLCAnPG91dGZpbGUubWFlPic=

>  <r_lp_tautomer_probability>  (150) 
1

>  <r_epik_Ionization_Penalty>  (150) 
3.02398e-07

>  <r_epik_Ionization_Penalty_Charging>  (150) 
0

>  <r_epik_Ionization_Penalty_Neutral>  (150) 
3.02398e-07

>  <r_epik_State_Penalty>  (150) 
-0

>  <r_epik_Charging_Adjusted_Penalty>  (150) 
0

>  <i_epik_Tot_Q>  (150) 
0

>  <i_epik_Tot_abs_Q>  (150) 
0

>  <s_lp_Force_Field>  (150) 
OPLS3e

>  <r_lp_Energy>  (150) 
121.945

>  <b_lp_Chiralities_Consistent>  (150) 
1

>  <s_lp_Variant>  (150) 
47:0-4

>  <s_i_glide_gridfile>  (150) 
pfpi4k_grid

>  <i_i_glide_lignum>  (150) 
4

>  <i_i_glide_rotatable_bonds>  (150) 
2

>  <r_i_docking_score>  (150) 
-2.11595

>  <r_i_glide_ligand_efficiency>  (150) 
-0.0729636

>  <r_i_glide_ligand_efficiency_sa>  (150) 
-0.224167

>  <r_i_glide_ligand_efficiency_ln>  (150) 
-0.484498

>  <r_i_glide_gscore>  (150) 
-2.11595

>  <r_i_glide_lipo>  (150) 
-0.00265858

>  <r_i_glide_hbond>  (150) 
0

>  <r_i_glide_metal>  (150) 
-0

>  <r_i_glide_rewards>  (150) 
-0.650572

>  <r_i_glide_evdw>  (150) 
-24.3175

>  <r_i_glide_ecoul>  (150) 
-1.64561

>  <r_i_glide_erotb>  (150) 
0

>  <r_i_glide_esite>  (150) 
0

>  <r_i_glide_emodel>  (150) 
-29.4099

>  <r_i_glide_energy>  (150) 
-25.9631

>  <r_i_glide_einternal>  (150) 
0.203889

>  <r_i_glide_intrahb_reward>  (150) 
-0

>  <i_i_glide_confnum>  (150) 
2

>  <i_i_glide_posenum>  (150) 
8

>  <r_i_glide_eff_state_penalty>  (150) 
0

>  <ligand_id>  (150) 
47

>  <original_smiles>  (150) 
CC12CCC3(C)COC45C(O)CC4C(C)(C)C(O)C=CC1C(C5(C)C)C3(C)OC2

>  <smiles>  (150) 
[H]OC1([H])C([H])=C([H])C2([H])C3([H])C4(C([H])([H])[H])OC([H])([H])C2(C([H])([H])[H])C([H])([H])C([H])([H])C4(C([H])([H])[H])C([H])([H])OC2(C([H])(O[H])C([H])([H])C2([H])C1(C([H])([H])[H])C([H])([H])[H])C3(C([H])([H])[H])C([H])([H])[H]

$$$$
48:0:0
     RDKit          3D

 19 19  0  0  1  0  0  0  0  0999 V2000
    3.7459   -1.0578   -4.7212 O   0  0  0  0  0  0  0  0  0  0  0  0
    3.3289   -1.3498   -3.4046 C   0  0  2  0  0  0  0  0  0  0  0  0
    4.5572   -1.3797   -2.4805 C   0  0  0  0  0  0  0  0  0  0  0  0
    4.1631   -1.8386   -1.0699 C   0  0  0  0  0  0  0  0  0  0  0  0
    3.3975   -3.1740   -1.1196 C   0  0  0  0  0  0  0  0  0  0  0  0
    2.2150   -3.0589   -2.0049 N   0  0  0  0  0  0  0  0  0  0  0  0
    2.5948   -2.7001   -3.3904 C   0  0  0  0  0  0  0  0  0  0  0  0
    2.9770   -0.9970   -5.2729 H   0  0  0  0  0  0  0  0  0  0  0  0
    2.6436   -0.5668   -3.0720 H   0  0  0  0  0  0  0  0  0  0  0  0
    5.3094   -2.0543   -2.8880 H   0  0  0  0  0  0  0  0  0  0  0  0
    5.0136   -0.3916   -2.4380 H   0  0  0  0  0  0  0  0  0  0  0  0
    5.0512   -1.9292   -0.4438 H   0  0  0  0  0  0  0  0  0  0  0  0
    3.5345   -1.0807   -0.6021 H   0  0  0  0  0  0  0  0  0  0  0  0
    4.0526   -3.9699   -1.4834 H   0  0  0  0  0  0  0  0  0  0  0  0
    3.0773   -3.4689   -0.1223 H   0  0  0  0  0  0  0  0  0  0  0  0
    1.7231   -3.9430   -2.0448 H   0  0  0  0  0  0  0  0  0  0  0  0
    1.7048   -2.6781   -4.0176 H   0  0  0  0  0  0  0  0  0  0  0  0
    3.2300   -3.4874   -3.8035 H   0  0  0  0  0  0  0  0  0  0  0  0
    1.6037   -2.3295   -1.6308 H   0  0  0  0  0  0  0  0  0  0  0  0
  1  2  1  0
  1  8  1  0
  2  7  1  0
  2  3  1  0
  2  9  1  1
  3  4  1  0
  3 10  1  0
  3 11  1  0
  4  5  1  0
  4 12  1  0
  4 13  1  0
  5  6  1  0
  5 14  1  0
  5 15  1  0
  6  7  1  0
  6 16  1  0
  6 19  1  0
  7 17  1  0
  7 18  1  0
M  CHG  1   6   1
M  END
>  <i_m_ct_stereo_status>  (151) 
1

>  <s_m_source_file>  (151) 
/var/tmp/pbs.5083858.sched01/tmp120am4xz/605xn5hpsi.sdf

>  <i_m_source_file_index>  (151) 
5

>  <i_lp_mmshare_version>  (151) 
48012

>  <i_f3d_flags>  (151) 
0

>  <s_epik_input>  (151) 
W09IXVtDQEBIXTFbQ0gyXVtDSDJdW0NIMl1bTkhdW0NIMl0x

>  <s_epik_cmdline>  (151) 
J2VwaWtfcHl0aG9uJywgJy1waHQnLCAnMi4wJywgJy1waCcsICc3LjAnLCAnLXRuJywgJzgnLCAnLW1hJywgJzIwMCcsICctaW1hZScsICc8aW5maWxlLm1hZT4nLCAnLW9tYWUnLCAnPG91dGZpbGUubWFlPic=

>  <r_epik_Ionization_Penalty>  (151) 
0.00256784

>  <r_epik_Ionization_Penalty_Charging>  (151) 
0.00256783

>  <r_epik_Ionization_Penalty_Neutral>  (151) 
9.28929e-09

>  <r_epik_State_Penalty>  (151) 
0.00178402

>  <r_epik_Charging_Adjusted_Penalty>  (151) 
0.00435185

>  <i_epik_Tot_Q>  (151) 
1

>  <i_epik_Tot_abs_Q>  (151) 
1

>  <s_lp_Force_Field>  (151) 
OPLS3e

>  <r_lp_Energy>  (151) 
11.883

>  <b_lp_Chiralities_Consistent>  (151) 
1

>  <s_lp_Variant>  (151) 
48:0-1

>  <s_i_glide_gridfile>  (151) 
pfpi4k_grid

>  <i_i_glide_lignum>  (151) 
5

>  <i_i_glide_rotatable_bonds>  (151) 
1

>  <r_i_docking_score>  (151) 
-5.5105

>  <r_i_glide_ligand_efficiency>  (151) 
-0.787214

>  <r_i_glide_ligand_efficiency_sa>  (151) 
-1.50589

>  <r_i_glide_ligand_efficiency_ln>  (151) 
-1.87056

>  <r_i_glide_gscore>  (151) 
-5.5105

>  <r_i_glide_lipo>  (151) 
-0.351193

>  <r_i_glide_hbond>  (151) 
-0.700906

>  <r_i_glide_metal>  (151) 
-0

>  <r_i_glide_rewards>  (151) 
-2.25

>  <r_i_glide_evdw>  (151) 
-14.2277

>  <r_i_glide_ecoul>  (151) 
-9.98009

>  <r_i_glide_erotb>  (151) 
0

>  <r_i_glide_esite>  (151) 
0

>  <r_i_glide_emodel>  (151) 
-34.6538

>  <r_i_glide_energy>  (151) 
-24.2078

>  <r_i_glide_einternal>  (151) 
0.32041

>  <r_i_glide_intrahb_reward>  (151) 
-0

>  <i_i_glide_confnum>  (151) 
3

>  <i_i_glide_posenum>  (151) 
1

>  <r_i_glide_eff_state_penalty>  (151) 
0

>  <ligand_id>  (151) 
48

>  <original_smiles>  (151) 
OC1CCCNC1

>  <smiles>  (151) 
[H]OC1([H])C([H])([H])C([H])([H])C([H])([H])[N+]([H])([H])C1([H])[H]

$$$$
48:0:1
     RDKit          3D

 19 19  0  0  1  0  0  0  0  0999 V2000
    4.3064   -4.0842   -4.1984 O   0  0  0  0  0  0  0  0  0  0  0  0
    4.1760   -2.8287   -3.5709 C   0  0  2  0  0  0  0  0  0  0  0  0
    5.0639   -2.7256   -2.3211 C   0  0  0  0  0  0  0  0  0  0  0  0
    4.5062   -3.5847   -1.1714 C   0  0  0  0  0  0  0  0  0  0  0  0
    3.0100   -3.2775   -0.9198 C   0  0  0  0  0  0  0  0  0  0  0  0
    2.2299   -3.4515   -2.1581 N   0  0  0  0  0  0  0  0  0  0  0  0
    2.6952   -2.5632   -3.2487 C   0  0  0  0  0  0  0  0  0  0  0  0
    4.0684   -4.7698   -3.5812 H   0  0  0  0  0  0  0  0  0  0  0  0
    4.5153   -2.0853   -4.2943 H   0  0  0  0  0  0  0  0  0  0  0  0
    6.0851   -3.0189   -2.5492 H   0  0  0  0  0  0  0  0  0  0  0  0
    5.1058   -1.6927   -1.9968 H   0  0  0  0  0  0  0  0  0  0  0  0
    4.6325   -4.6439   -1.4031 H   0  0  0  0  0  0  0  0  0  0  0  0
    5.0861   -3.4157   -0.2669 H   0  0  0  0  0  0  0  0  0  0  0  0
    2.6199   -3.9383   -0.1407 H   0  0  0  0  0  0  0  0  0  0  0  0
    2.8959   -2.2622   -0.5446 H   0  0  0  0  0  0  0  0  0  0  0  0
    2.2973   -4.4184   -2.4620 H   0  0  0  0  0  0  0  0  0  0  0  0
    2.5777   -1.5255   -2.9303 H   0  0  0  0  0  0  0  0  0  0  0  0
    2.0670   -2.6786   -4.1328 H   0  0  0  0  0  0  0  0  0  0  0  0
    1.2545   -3.2297   -1.9856 H   0  0  0  0  0  0  0  0  0  0  0  0
  1  2  1  0
  1  8  1  0
  2  7  1  0
  2  3  1  0
  2  9  1  6
  3  4  1  0
  3 10  1  0
  3 11  1  0
  4  5  1  0
  4 12  1  0
  4 13  1  0
  5  6  1  0
  5 14  1  0
  5 15  1  0
  6  7  1  0
  6 16  1  0
  6 19  1  0
  7 17  1  0
  7 18  1  0
M  CHG  1   6   1
M  END
>  <i_m_ct_stereo_status>  (152) 
1

>  <s_m_source_file>  (152) 
/var/tmp/pbs.5083858.sched01/tmp120am4xz/605xn5hpsi.sdf

>  <i_m_source_file_index>  (152) 
5

>  <i_lp_mmshare_version>  (152) 
48012

>  <i_f3d_flags>  (152) 
0

>  <s_epik_input>  (152) 
W09IXVtDQEBIXTFbQ0gyXVtDSDJdW0NIMl1bTkhdW0NIMl0x

>  <s_epik_cmdline>  (152) 
J2VwaWtfcHl0aG9uJywgJy1waHQnLCAnMi4wJywgJy1waCcsICc3LjAnLCAnLXRuJywgJzgnLCAnLW1hJywgJzIwMCcsICctaW1hZScsICc8aW5maWxlLm1hZT4nLCAnLW9tYWUnLCAnPG91dGZpbGUubWFlPic=

>  <r_epik_Ionization_Penalty>  (152) 
0.00256784

>  <r_epik_Ionization_Penalty_Charging>  (152) 
0.00256783

>  <r_epik_Ionization_Penalty_Neutral>  (152) 
9.28929e-09

>  <r_epik_State_Penalty>  (152) 
0.00178402

>  <r_epik_Charging_Adjusted_Penalty>  (152) 
0.00435185

>  <i_epik_Tot_Q>  (152) 
1

>  <i_epik_Tot_abs_Q>  (152) 
1

>  <s_lp_Force_Field>  (152) 
OPLS3e

>  <r_lp_Energy>  (152) 
11.883

>  <b_lp_Chiralities_Consistent>  (152) 
1

>  <s_lp_Variant>  (152) 
48:0-1

>  <s_i_glide_gridfile>  (152) 
pfpi4k_grid

>  <i_i_glide_lignum>  (152) 
5

>  <i_i_glide_rotatable_bonds>  (152) 
1

>  <r_i_docking_score>  (152) 
-5.2687

>  <r_i_glide_ligand_efficiency>  (152) 
-0.752671

>  <r_i_glide_ligand_efficiency_sa>  (152) 
-1.43981

>  <r_i_glide_ligand_efficiency_ln>  (152) 
-1.78848

>  <r_i_glide_gscore>  (152) 
-5.2687

>  <r_i_glide_lipo>  (152) 
-0.493723

>  <r_i_glide_hbond>  (152) 
-0.32

>  <r_i_glide_metal>  (152) 
-0

>  <r_i_glide_rewards>  (152) 
-2.25

>  <r_i_glide_evdw>  (152) 
-12.9742

>  <r_i_glide_ecoul>  (152) 
-10.3751

>  <r_i_glide_erotb>  (152) 
0

>  <r_i_glide_esite>  (152) 
0

>  <r_i_glide_emodel>  (152) 
-33.4421

>  <r_i_glide_energy>  (152) 
-23.3493

>  <r_i_glide_einternal>  (152) 
0.0294807

>  <r_i_glide_intrahb_reward>  (152) 
-0

>  <i_i_glide_confnum>  (152) 
4

>  <i_i_glide_posenum>  (152) 
35

>  <r_i_glide_eff_state_penalty>  (152) 
0

>  <ligand_id>  (152) 
48

>  <original_smiles>  (152) 
OC1CCCNC1

>  <smiles>  (152) 
[H]OC1([H])C([H])([H])C([H])([H])C([H])([H])[N+]([H])([H])C1([H])[H]

$$$$
48:0:2
     RDKit          3D

 19 19  0  0  1  0  0  0  0  0999 V2000
    4.1524   -3.8567   -3.9106 O   0  0  0  0  0  0  0  0  0  0  0  0
    3.2051   -2.8202   -3.7570 C   0  0  2  0  0  0  0  0  0  0  0  0
    3.9370   -1.4632   -3.6402 C   0  0  0  0  0  0  0  0  0  0  0  0
    4.7162   -1.3620   -2.3145 C   0  0  0  0  0  0  0  0  0  0  0  0
    3.8190   -1.6939   -1.1079 C   0  0  0  0  0  0  0  0  0  0  0  0
    3.1787   -3.0168   -1.2880 N   0  0  0  0  0  0  0  0  0  0  0  0
    2.3413   -3.0838   -2.5115 C   0  0  0  0  0  0  0  0  0  0  0  0
    3.7544   -4.6891   -3.6600 H   0  0  0  0  0  0  0  0  0  0  0  0
    2.5662   -2.8227   -4.6385 H   0  0  0  0  0  0  0  0  0  0  0  0
    4.6110   -1.3144   -4.4812 H   0  0  0  0  0  0  0  0  0  0  0  0
    3.2103   -0.6560   -3.6840 H   0  0  0  0  0  0  0  0  0  0  0  0
    5.5637   -2.0532   -2.3378 H   0  0  0  0  0  0  0  0  0  0  0  0
    5.1508   -0.3702   -2.2136 H   0  0  0  0  0  0  0  0  0  0  0  0
    4.4031   -1.6855   -0.1895 H   0  0  0  0  0  0  0  0  0  0  0  0
    3.0428   -0.9385   -0.9863 H   0  0  0  0  0  0  0  0  0  0  0  0
    3.8970   -3.7220   -1.3745 H   0  0  0  0  0  0  0  0  0  0  0  0
    1.5564   -2.3323   -2.4618 H   0  0  0  0  0  0  0  0  0  0  0  0
    1.8230   -4.0369   -2.5746 H   0  0  0  0  0  0  0  0  0  0  0  0
    2.6060   -3.2107   -0.4874 H   0  0  0  0  0  0  0  0  0  0  0  0
  1  2  1  0
  1  8  1  0
  2  7  1  0
  2  3  1  0
  2  9  1  6
  3  4  1  0
  3 10  1  0
  3 11  1  0
  4  5  1  0
  4 12  1  0
  4 13  1  0
  5  6  1  0
  5 14  1  0
  5 15  1  0
  6  7  1  0
  6 16  1  0
  6 19  1  0
  7 17  1  0
  7 18  1  0
M  CHG  1   6   1
M  END
>  <i_m_ct_stereo_status>  (153) 
1

>  <s_m_source_file>  (153) 
/var/tmp/pbs.5083858.sched01/tmp120am4xz/605xn5hpsi.sdf

>  <i_m_source_file_index>  (153) 
5

>  <i_lp_mmshare_version>  (153) 
48012

>  <i_f3d_flags>  (153) 
0

>  <s_epik_input>  (153) 
W09IXVtDQEBIXTFbQ0gyXVtDSDJdW0NIMl1bTkhdW0NIMl0x

>  <s_epik_cmdline>  (153) 
J2VwaWtfcHl0aG9uJywgJy1waHQnLCAnMi4wJywgJy1waCcsICc3LjAnLCAnLXRuJywgJzgnLCAnLW1hJywgJzIwMCcsICctaW1hZScsICc8aW5maWxlLm1hZT4nLCAnLW9tYWUnLCAnPG91dGZpbGUubWFlPic=

>  <r_epik_Ionization_Penalty>  (153) 
0.00256784

>  <r_epik_Ionization_Penalty_Charging>  (153) 
0.00256783

>  <r_epik_Ionization_Penalty_Neutral>  (153) 
9.28929e-09

>  <r_epik_State_Penalty>  (153) 
0.00178402

>  <r_epik_Charging_Adjusted_Penalty>  (153) 
0.00435185

>  <i_epik_Tot_Q>  (153) 
1

>  <i_epik_Tot_abs_Q>  (153) 
1

>  <s_lp_Force_Field>  (153) 
OPLS3e

>  <r_lp_Energy>  (153) 
11.883

>  <b_lp_Chiralities_Consistent>  (153) 
1

>  <s_lp_Variant>  (153) 
48:0-1

>  <s_i_glide_gridfile>  (153) 
pfpi4k_grid

>  <i_i_glide_lignum>  (153) 
5

>  <i_i_glide_rotatable_bonds>  (153) 
1

>  <r_i_docking_score>  (153) 
-5.01836

>  <r_i_glide_ligand_efficiency>  (153) 
-0.716908

>  <r_i_glide_ligand_efficiency_sa>  (153) 
-1.3714

>  <r_i_glide_ligand_efficiency_ln>  (153) 
-1.7035

>  <r_i_glide_gscore>  (153) 
-5.01836

>  <r_i_glide_lipo>  (153) 
-0.485242

>  <r_i_glide_hbond>  (153) 
-0.32

>  <r_i_glide_metal>  (153) 
-0

>  <r_i_glide_rewards>  (153) 
-2.25

>  <r_i_glide_evdw>  (153) 
-13.5106

>  <r_i_glide_ecoul>  (153) 
-8.56763

>  <r_i_glide_erotb>  (153) 
0

>  <r_i_glide_esite>  (153) 
-0.0024405

>  <r_i_glide_emodel>  (153) 
-30.9296

>  <r_i_glide_energy>  (153) 
-22.0782

>  <r_i_glide_einternal>  (153) 
0.985841

>  <r_i_glide_intrahb_reward>  (153) 
-0

>  <i_i_glide_confnum>  (153) 
4

>  <i_i_glide_posenum>  (153) 
32

>  <r_i_glide_eff_state_penalty>  (153) 
0

>  <ligand_id>  (153) 
48

>  <original_smiles>  (153) 
OC1CCCNC1

>  <smiles>  (153) 
[H]OC1([H])C([H])([H])C([H])([H])C([H])([H])[N+]([H])([H])C1([H])[H]

$$$$
49:0:0
     RDKit          3D

 16 17  0  0  1  0  0  0  0  0999 V2000
   -2.6981    3.2052    3.6802 C   0  0  0  0  0  0  0  0  0  0  0  0
   -1.3051    3.5950    3.7316 N   0  0  0  0  0  0  0  0  0  0  0  0
   -0.9874    4.8873    4.0841 N   0  0  0  0  0  0  0  0  0  0  0  0
    0.3352    4.9442    4.0389 C   0  0  0  0  0  0  0  0  0  0  0  0
    0.8830    3.6970    3.6791 C   0  0  0  0  0  0  0  0  0  0  0  0
    2.1534    3.3054    3.5282 N   0  0  0  0  0  0  0  0  0  0  0  0
    2.3021    2.0118    3.1417 C   0  0  0  0  0  0  0  0  0  0  0  0
    1.2143    1.1222    2.9335 C   0  0  0  0  0  0  0  0  0  0  0  0
    1.5395   -0.5112    2.4829 Cl  0  0  0  0  0  0  0  0  0  0  0  0
   -0.0766    1.4952    3.1034 N   0  0  0  0  0  0  0  0  0  0  0  0
   -0.1894    2.8056    3.4674 C   0  0  0  0  0  0  0  0  0  0  0  0
   -2.7804    2.1550    3.3928 H   0  0  0  0  0  0  0  0  0  0  0  0
   -3.2247    3.8123    2.9420 H   0  0  0  0  0  0  0  0  0  0  0  0
   -3.1546    3.3379    4.6623 H   0  0  0  0  0  0  0  0  0  0  0  0
    0.9092    5.8309    4.2615 H   0  0  0  0  0  0  0  0  0  0  0  0
    3.3189    1.6756    3.0110 H   0  0  0  0  0  0  0  0  0  0  0  0
  1  2  1  0
  1 12  1  0
  1 13  1  0
  1 14  1  0
  2 11  1  0
  2  3  1  0
  3  4  2  0
  4  5  1  0
  4 15  1  0
  5 11  2  0
  5  6  1  0
  6  7  2  0
  7  8  1  0
  7 16  1  0
  8  9  1  0
  8 10  2  0
 10 11  1  0
M  END
>  <i_m_ct_stereo_status>  (154) 
1

>  <s_m_source_file>  (154) 
/var/tmp/pbs.5083858.sched01/tmp41lhm64p/65tcrvjyjo.sdf

>  <i_m_source_file_index>  (154) 
1

>  <i_lp_mmshare_version>  (154) 
48012

>  <i_f3d_flags>  (154) 
0

>  <s_epik_input>  (154) 
W2NIXTFubihbQ0gzXSljKGMxMiluYyhDbClbY0hdbjI=

>  <s_epik_cmdline>  (154) 
J2VwaWtfcHl0aG9uJywgJy1waHQnLCAnMi4wJywgJy1waCcsICc3LjAnLCAnLXRuJywgJzgnLCAnLW1hJywgJzIwMCcsICctaW1hZScsICc8aW5maWxlLm1hZT4nLCAnLW9tYWUnLCAnPG91dGZpbGUubWFlPic=

>  <r_lp_tautomer_probability>  (154) 
1

>  <r_epik_Ionization_Penalty>  (154) 
1.41895e-09

>  <r_epik_Ionization_Penalty_Charging>  (154) 
0

>  <r_epik_Ionization_Penalty_Neutral>  (154) 
1.41895e-09

>  <r_epik_State_Penalty>  (154) 
-0

>  <r_epik_Charging_Adjusted_Penalty>  (154) 
0

>  <i_epik_Tot_Q>  (154) 
0

>  <i_epik_Tot_abs_Q>  (154) 
0

>  <s_lp_Force_Field>  (154) 
OPLS3e

>  <r_lp_Energy>  (154) 
14.7361

>  <b_lp_Chiralities_Consistent>  (154) 
1

>  <s_lp_Variant>  (154) 
49:0-1

>  <s_i_glide_gridfile>  (154) 
pfpi4k_grid

>  <i_i_glide_lignum>  (154) 
1

>  <i_i_glide_rotatable_bonds>  (154) 
0

>  <r_i_docking_score>  (154) 
-3.56028

>  <r_i_glide_ligand_efficiency>  (154) 
-0.323662

>  <r_i_glide_ligand_efficiency_sa>  (154) 
-0.719818

>  <r_i_glide_ligand_efficiency_ln>  (154) 
-1.04779

>  <r_i_glide_gscore>  (154) 
-3.56028

>  <r_i_glide_lipo>  (154) 
0

>  <r_i_glide_hbond>  (154) 
-0.108913

>  <r_i_glide_metal>  (154) 
-0

>  <r_i_glide_rewards>  (154) 
-2.25

>  <r_i_glide_evdw>  (154) 
-13.917

>  <r_i_glide_ecoul>  (154) 
-2.42905

>  <r_i_glide_erotb>  (154) 
0

>  <r_i_glide_esite>  (154) 
-0.141161

>  <r_i_glide_emodel>  (154) 
-20.478

>  <r_i_glide_energy>  (154) 
-16.3461

>  <r_i_glide_einternal>  (154) 
0

>  <r_i_glide_intrahb_reward>  (154) 
-0

>  <i_i_glide_confnum>  (154) 
1

>  <i_i_glide_posenum>  (154) 
15

>  <r_i_glide_eff_state_penalty>  (154) 
0

>  <ligand_id>  (154) 
49

>  <original_smiles>  (154) 
Cn1ncc2ncc(Cl)nc21

>  <smiles>  (154) 
[H]c1nc2c([H])nn(C([H])([H])[H])c2nc1Cl

$$$$
49:0:1
     RDKit          3D

 16 17  0  0  1  0  0  0  0  0999 V2000
    0.1661   -5.4965    6.5366 C   0  0  0  0  0  0  0  0  0  0  0  0
    0.6491   -5.4380    5.1752 N   0  0  0  0  0  0  0  0  0  0  0  0
    1.5929   -4.4944    4.8495 N   0  0  0  0  0  0  0  0  0  0  0  0
    1.8448   -4.6841    3.5628 C   0  0  0  0  0  0  0  0  0  0  0  0
    1.0645   -5.7344    3.0434 C   0  0  0  0  0  0  0  0  0  0  0  0
    0.9762   -6.2465    1.8065 N   0  0  0  0  0  0  0  0  0  0  0  0
    0.1037   -7.2784    1.6807 C   0  0  0  0  0  0  0  0  0  0  0  0
   -0.6842   -7.7724    2.7549 C   0  0  0  0  0  0  0  0  0  0  0  0
   -1.7865   -9.0581    2.4686 Cl  0  0  0  0  0  0  0  0  0  0  0  0
   -0.6322   -7.2449    4.0009 N   0  0  0  0  0  0  0  0  0  0  0  0
    0.2739   -6.2355    4.0976 C   0  0  0  0  0  0  0  0  0  0  0  0
   -0.5821   -6.2854    6.6310 H   0  0  0  0  0  0  0  0  0  0  0  0
   -0.2875   -4.5419    6.8059 H   0  0  0  0  0  0  0  0  0  0  0  0
    0.9978   -5.7112    7.2100 H   0  0  0  0  0  0  0  0  0  0  0  0
    2.5458   -4.0946    2.9913 H   0  0  0  0  0  0  0  0  0  0  0  0
    0.0131   -7.6992    0.6911 H   0  0  0  0  0  0  0  0  0  0  0  0
  1  2  1  0
  1 12  1  0
  1 13  1  0
  1 14  1  0
  2 11  1  0
  2  3  1  0
  3  4  2  0
  4  5  1  0
  4 15  1  0
  5 11  2  0
  5  6  1  0
  6  7  2  0
  7  8  1  0
  7 16  1  0
  8  9  1  0
  8 10  2  0
 10 11  1  0
M  END
>  <i_m_ct_stereo_status>  (155) 
1

>  <s_m_source_file>  (155) 
/var/tmp/pbs.5083858.sched01/tmp41lhm64p/65tcrvjyjo.sdf

>  <i_m_source_file_index>  (155) 
1

>  <i_lp_mmshare_version>  (155) 
48012

>  <i_f3d_flags>  (155) 
0

>  <s_epik_input>  (155) 
W2NIXTFubihbQ0gzXSljKGMxMiluYyhDbClbY0hdbjI=

>  <s_epik_cmdline>  (155) 
J2VwaWtfcHl0aG9uJywgJy1waHQnLCAnMi4wJywgJy1waCcsICc3LjAnLCAnLXRuJywgJzgnLCAnLW1hJywgJzIwMCcsICctaW1hZScsICc8aW5maWxlLm1hZT4nLCAnLW9tYWUnLCAnPG91dGZpbGUubWFlPic=

>  <r_lp_tautomer_probability>  (155) 
1

>  <r_epik_Ionization_Penalty>  (155) 
1.41895e-09

>  <r_epik_Ionization_Penalty_Charging>  (155) 
0

>  <r_epik_Ionization_Penalty_Neutral>  (155) 
1.41895e-09

>  <r_epik_State_Penalty>  (155) 
-0

>  <r_epik_Charging_Adjusted_Penalty>  (155) 
0

>  <i_epik_Tot_Q>  (155) 
0

>  <i_epik_Tot_abs_Q>  (155) 
0

>  <s_lp_Force_Field>  (155) 
OPLS3e

>  <r_lp_Energy>  (155) 
14.7361

>  <b_lp_Chiralities_Consistent>  (155) 
1

>  <s_lp_Variant>  (155) 
49:0-1

>  <s_i_glide_gridfile>  (155) 
pfpi4k_grid

>  <i_i_glide_lignum>  (155) 
1

>  <i_i_glide_rotatable_bonds>  (155) 
0

>  <r_i_docking_score>  (155) 
-3.54552

>  <r_i_glide_ligand_efficiency>  (155) 
-0.32232

>  <r_i_glide_ligand_efficiency_sa>  (155) 
-0.716833

>  <r_i_glide_ligand_efficiency_ln>  (155) 
-1.04345

>  <r_i_glide_gscore>  (155) 
-3.54552

>  <r_i_glide_lipo>  (155) 
-0.244499

>  <r_i_glide_hbond>  (155) 
-0.0888492

>  <r_i_glide_metal>  (155) 
-0

>  <r_i_glide_rewards>  (155) 
-2.25

>  <r_i_glide_evdw>  (155) 
-15.1713

>  <r_i_glide_ecoul>  (155) 
-1.0973

>  <r_i_glide_erotb>  (155) 
0

>  <r_i_glide_esite>  (155) 
-0.0390116

>  <r_i_glide_emodel>  (155) 
-20.3796

>  <r_i_glide_energy>  (155) 
-16.2686

>  <r_i_glide_einternal>  (155) 
0

>  <r_i_glide_intrahb_reward>  (155) 
-0

>  <i_i_glide_confnum>  (155) 
1

>  <i_i_glide_posenum>  (155) 
4

>  <r_i_glide_eff_state_penalty>  (155) 
0

>  <ligand_id>  (155) 
49

>  <original_smiles>  (155) 
Cn1ncc2ncc(Cl)nc21

>  <smiles>  (155) 
[H]c1nc2c([H])nn(C([H])([H])[H])c2nc1Cl

$$$$
49:0:2
     RDKit          3D

 16 17  0  0  1  0  0  0  0  0999 V2000
   -2.0019    3.0825    2.7632 C   0  0  0  0  0  0  0  0  0  0  0  0
   -1.9184    2.6074    4.1253 N   0  0  0  0  0  0  0  0  0  0  0  0
   -2.4833    3.3628    5.1254 N   0  0  0  0  0  0  0  0  0  0  0  0
   -2.2419    2.6985    6.2441 C   0  0  0  0  0  0  0  0  0  0  0  0
   -1.5408    1.5057    5.9807 C   0  0  0  0  0  0  0  0  0  0  0  0
   -1.1118    0.5362    6.7976 N   0  0  0  0  0  0  0  0  0  0  0  0
   -0.4418   -0.4705    6.1763 C   0  0  0  0  0  0  0  0  0  0  0  0
   -0.2238   -0.5258    4.7742 C   0  0  0  0  0  0  0  0  0  0  0  0
    0.6186   -1.8751    4.1079 Cl  0  0  0  0  0  0  0  0  0  0  0  0
   -0.6692    0.4370    3.9334 N   0  0  0  0  0  0  0  0  0  0  0  0
   -1.3195    1.4394    4.5881 C   0  0  0  0  0  0  0  0  0  0  0  0
   -1.5082    2.3765    2.0921 H   0  0  0  0  0  0  0  0  0  0  0  0
   -1.5043    4.0500    2.6772 H   0  0  0  0  0  0  0  0  0  0  0  0
   -3.0486    3.1788    2.4711 H   0  0  0  0  0  0  0  0  0  0  0  0
   -2.5607    3.0274    7.2222 H   0  0  0  0  0  0  0  0  0  0  0  0
   -0.0793   -1.2623    6.8142 H   0  0  0  0  0  0  0  0  0  0  0  0
  1  2  1  0
  1 12  1  0
  1 13  1  0
  1 14  1  0
  2 11  1  0
  2  3  1  0
  3  4  2  0
  4  5  1  0
  4 15  1  0
  5 11  2  0
  5  6  1  0
  6  7  2  0
  7  8  1  0
  7 16  1  0
  8  9  1  0
  8 10  2  0
 10 11  1  0
M  END
>  <i_m_ct_stereo_status>  (156) 
1

>  <s_m_source_file>  (156) 
/var/tmp/pbs.5083858.sched01/tmp41lhm64p/65tcrvjyjo.sdf

>  <i_m_source_file_index>  (156) 
1

>  <i_lp_mmshare_version>  (156) 
48012

>  <i_f3d_flags>  (156) 
0

>  <s_epik_input>  (156) 
W2NIXTFubihbQ0gzXSljKGMxMiluYyhDbClbY0hdbjI=

>  <s_epik_cmdline>  (156) 
J2VwaWtfcHl0aG9uJywgJy1waHQnLCAnMi4wJywgJy1waCcsICc3LjAnLCAnLXRuJywgJzgnLCAnLW1hJywgJzIwMCcsICctaW1hZScsICc8aW5maWxlLm1hZT4nLCAnLW9tYWUnLCAnPG91dGZpbGUubWFlPic=

>  <r_lp_tautomer_probability>  (156) 
1

>  <r_epik_Ionization_Penalty>  (156) 
1.41895e-09

>  <r_epik_Ionization_Penalty_Charging>  (156) 
0

>  <r_epik_Ionization_Penalty_Neutral>  (156) 
1.41895e-09

>  <r_epik_State_Penalty>  (156) 
-0

>  <r_epik_Charging_Adjusted_Penalty>  (156) 
0

>  <i_epik_Tot_Q>  (156) 
0

>  <i_epik_Tot_abs_Q>  (156) 
0

>  <s_lp_Force_Field>  (156) 
OPLS3e

>  <r_lp_Energy>  (156) 
14.7361

>  <b_lp_Chiralities_Consistent>  (156) 
1

>  <s_lp_Variant>  (156) 
49:0-1

>  <s_i_glide_gridfile>  (156) 
pfpi4k_grid

>  <i_i_glide_lignum>  (156) 
1

>  <i_i_glide_rotatable_bonds>  (156) 
0

>  <r_i_docking_score>  (156) 
-3.47091

>  <r_i_glide_ligand_efficiency>  (156) 
-0.315538

>  <r_i_glide_ligand_efficiency_sa>  (156) 
-0.701749

>  <r_i_glide_ligand_efficiency_ln>  (156) 
-1.02149

>  <r_i_glide_gscore>  (156) 
-3.47091

>  <r_i_glide_lipo>  (156) 
-0.120082

>  <r_i_glide_hbond>  (156) 
-0.116153

>  <r_i_glide_metal>  (156) 
-0

>  <r_i_glide_rewards>  (156) 
-2.25

>  <r_i_glide_evdw>  (156) 
-13.9624

>  <r_i_glide_ecoul>  (156) 
-1.5858

>  <r_i_glide_erotb>  (156) 
0

>  <r_i_glide_esite>  (156) 
-0.0486891

>  <r_i_glide_emodel>  (156) 
-19.578

>  <r_i_glide_energy>  (156) 
-15.5482

>  <r_i_glide_einternal>  (156) 
0

>  <r_i_glide_intrahb_reward>  (156) 
-0

>  <i_i_glide_confnum>  (156) 
1

>  <i_i_glide_posenum>  (156) 
5

>  <r_i_glide_eff_state_penalty>  (156) 
0

>  <ligand_id>  (156) 
49

>  <original_smiles>  (156) 
Cn1ncc2ncc(Cl)nc21

>  <smiles>  (156) 
[H]c1nc2c([H])nn(C([H])([H])[H])c2nc1Cl

$$$$
50:0:0
     RDKit          3D

 21 24  0  0  1  0  0  0  0  0999 V2000
    3.1376   -1.6663   -3.8795 C   0  0  0  0  0  0  0  0  0  0  0  0
    2.7077   -2.9655   -3.1638 C   0  0  0  0  0  0  0  0  0  0  0  0
    3.1691   -2.7712   -1.7757 C   0  0  0  0  0  0  0  0  0  0  0  0
    2.9331   -3.7750   -0.3430 S   0  0  0  0  0  0  0  0  0  0  0  0
    3.8126   -2.5933    0.5555 C   0  0  0  0  0  0  0  0  0  0  0  0
    4.2684   -1.4858   -0.2010 C   0  0  0  0  0  0  0  0  0  0  0  0
    4.9712   -0.5360    0.4542 N   0  0  0  0  0  0  0  0  0  0  0  0
    5.2041   -0.6821    1.7819 N   0  0  0  0  0  0  0  0  0  0  0  0
    4.7378   -1.7743    2.4600 C   0  0  0  0  0  0  0  0  0  0  0  0
    4.8711   -2.0858    3.7502 N   0  0  0  0  0  0  0  0  0  0  0  0
    4.1976   -3.3208    3.8859 N   0  0  0  0  0  0  0  0  0  0  0  0
    3.6885   -3.7314    2.7539 N   0  0  0  0  0  0  0  0  0  0  0  0
    4.0447   -2.7524    1.9111 N   0  0  0  0  0  0  0  0  0  0  0  0
    3.8666   -1.6056   -1.5960 C   0  0  0  0  0  0  0  0  0  0  0  0
    3.9832   -0.8385   -2.8726 C   0  0  0  0  0  0  0  0  0  0  0  0
    2.2509   -1.1144   -4.1786 H   0  0  0  0  0  0  0  0  0  0  0  0
    3.6679   -1.8720   -4.8039 H   0  0  0  0  0  0  0  0  0  0  0  0
    1.6347   -3.1135   -3.2216 H   0  0  0  0  0  0  0  0  0  0  0  0
    3.1748   -3.8342   -3.6169 H   0  0  0  0  0  0  0  0  0  0  0  0
    5.0182   -0.7949   -3.2095 H   0  0  0  0  0  0  0  0  0  0  0  0
    3.6038    0.1791   -2.7927 H   0  0  0  0  0  0  0  0  0  0  0  0
  1 15  1  0
  1  2  1  0
  1 16  1  0
  1 17  1  0
  2  3  1  0
  2 18  1  0
  2 19  1  0
  3 14  2  0
  3  4  1  0
  4  5  1  0
  5 13  1  0
  5  6  2  0
  6  7  1  0
  6 14  1  0
  7  8  2  0
  8  9  1  0
  9 13  1  0
  9 10  2  0
 10 11  1  0
 11 12  2  0
 12 13  1  0
 14 15  1  0
 15 20  1  0
 15 21  1  0
M  END
>  <i_m_ct_stereo_status>  (157) 
1

>  <s_m_source_file>  (157) 
/var/tmp/pbs.5083858.sched01/tmp41lhm64p/65tcrvjyjo.sdf

>  <i_m_source_file_index>  (157) 
2

>  <i_lp_mmshare_version>  (157) 
48012

>  <i_f3d_flags>  (157) 
0

>  <s_epik_input>  (157) 
W0NIMl0xW0NIMl1bQ0gyXWMoYzEyKWMzYyhzMiluNGMobm4zKW5ubjQ=

>  <s_epik_cmdline>  (157) 
J2VwaWtfcHl0aG9uJywgJy1waHQnLCAnMi4wJywgJy1waCcsICc3LjAnLCAnLXRuJywgJzgnLCAnLW1hJywgJzIwMCcsICctaW1hZScsICc8aW5maWxlLm1hZT4nLCAnLW9tYWUnLCAnPG91dGZpbGUubWFlPic=

>  <r_lp_tautomer_probability>  (157) 
1

>  <r_epik_Ionization_Penalty>  (157) 
3.41828e-12

>  <r_epik_Ionization_Penalty_Charging>  (157) 
0

>  <r_epik_Ionization_Penalty_Neutral>  (157) 
3.41828e-12

>  <r_epik_State_Penalty>  (157) 
-0

>  <r_epik_Charging_Adjusted_Penalty>  (157) 
0

>  <i_epik_Tot_Q>  (157) 
0

>  <i_epik_Tot_abs_Q>  (157) 
0

>  <s_lp_Force_Field>  (157) 
OPLS3e

>  <r_lp_Energy>  (157) 
15.4628

>  <b_lp_Chiralities_Consistent>  (157) 
1

>  <s_lp_Variant>  (157) 
50:0-1

>  <s_i_glide_gridfile>  (157) 
pfpi4k_grid

>  <i_i_glide_lignum>  (157) 
2

>  <i_i_glide_rotatable_bonds>  (157) 
0

>  <r_i_docking_score>  (157) 
-3.4316

>  <r_i_glide_ligand_efficiency>  (157) 
-0.228774

>  <r_i_glide_ligand_efficiency_sa>  (157) 
-0.564204

>  <r_i_glide_ligand_efficiency_ln>  (157) 
-0.925447

>  <r_i_glide_gscore>  (157) 
-3.4316

>  <r_i_glide_lipo>  (157) 
-0.317336

>  <r_i_glide_hbond>  (157) 
0

>  <r_i_glide_metal>  (157) 
-0

>  <r_i_glide_rewards>  (157) 
-1.99658

>  <r_i_glide_evdw>  (157) 
-22.1159

>  <r_i_glide_ecoul>  (157) 
-0.0792766

>  <r_i_glide_erotb>  (157) 
0

>  <r_i_glide_esite>  (157) 
0

>  <r_i_glide_emodel>  (157) 
-26.8783

>  <r_i_glide_energy>  (157) 
-22.1951

>  <r_i_glide_einternal>  (157) 
0

>  <r_i_glide_intrahb_reward>  (157) 
-0

>  <i_i_glide_confnum>  (157) 
1

>  <i_i_glide_posenum>  (157) 
25

>  <r_i_glide_eff_state_penalty>  (157) 
0

>  <ligand_id>  (157) 
50

>  <original_smiles>  (157) 
C1Cc2sc3c(nnc4nnnn43)c2C1

>  <smiles>  (157) 
[H]C1([H])c2sc3c(nnc4nnnn43)c2C([H])([H])C1([H])[H]

$$$$
50:0:1
     RDKit          3D

 21 24  0  0  1  0  0  0  0  0999 V2000
    1.8847   -9.7868    2.4797 C   0  0  0  0  0  0  0  0  0  0  0  0
    1.2753  -10.0206    3.8831 C   0  0  0  0  0  0  0  0  0  0  0  0
    0.9924   -8.6553    4.3664 C   0  0  0  0  0  0  0  0  0  0  0  0
    0.2181   -8.1259    5.8539 S   0  0  0  0  0  0  0  0  0  0  0  0
    0.4303   -6.5031    5.3330 C   0  0  0  0  0  0  0  0  0  0  0  0
    1.0855   -6.3745    4.0812 C   0  0  0  0  0  0  0  0  0  0  0  0
    1.3036   -5.1230    3.6166 N   0  0  0  0  0  0  0  0  0  0  0  0
    0.8908   -4.0685    4.3607 N   0  0  0  0  0  0  0  0  0  0  0  0
    0.2529   -4.2560    5.5634 C   0  0  0  0  0  0  0  0  0  0  0  0
   -0.2380   -3.3501    6.4086 N   0  0  0  0  0  0  0  0  0  0  0  0
   -0.7795   -4.1115    7.4730 N   0  0  0  0  0  0  0  0  0  0  0  0
   -0.6287   -5.3971    7.2844 N   0  0  0  0  0  0  0  0  0  0  0  0
   -0.0009   -5.4374    6.1005 N   0  0  0  0  0  0  0  0  0  0  0  0
    1.4136   -7.6688    3.5134 C   0  0  0  0  0  0  0  0  0  0  0  0
    2.0700   -8.2470    2.2996 C   0  0  0  0  0  0  0  0  0  0  0  0
    1.1937  -10.1738    1.7318 H   0  0  0  0  0  0  0  0  0  0  0  0
    2.8058  -10.3531    2.3369 H   0  0  0  0  0  0  0  0  0  0  0  0
    0.3828  -10.6420    3.8361 H   0  0  0  0  0  0  0  0  0  0  0  0
    1.9749  -10.5437    4.5312 H   0  0  0  0  0  0  0  0  0  0  0  0
    3.1351   -8.0070    2.2699 H   0  0  0  0  0  0  0  0  0  0  0  0
    1.6054   -7.9128    1.3690 H   0  0  0  0  0  0  0  0  0  0  0  0
  1 15  1  0
  1  2  1  0
  1 16  1  0
  1 17  1  0
  2  3  1  0
  2 18  1  0
  2 19  1  0
  3 14  2  0
  3  4  1  0
  4  5  1  0
  5 13  1  0
  5  6  2  0
  6  7  1  0
  6 14  1  0
  7  8  2  0
  8  9  1  0
  9 13  1  0
  9 10  2  0
 10 11  1  0
 11 12  2  0
 12 13  1  0
 14 15  1  0
 15 20  1  0
 15 21  1  0
M  END
>  <i_m_ct_stereo_status>  (158) 
1

>  <s_m_source_file>  (158) 
/var/tmp/pbs.5083858.sched01/tmp41lhm64p/65tcrvjyjo.sdf

>  <i_m_source_file_index>  (158) 
2

>  <i_lp_mmshare_version>  (158) 
48012

>  <i_f3d_flags>  (158) 
0

>  <s_epik_input>  (158) 
W0NIMl0xW0NIMl1bQ0gyXWMoYzEyKWMzYyhzMiluNGMobm4zKW5ubjQ=

>  <s_epik_cmdline>  (158) 
J2VwaWtfcHl0aG9uJywgJy1waHQnLCAnMi4wJywgJy1waCcsICc3LjAnLCAnLXRuJywgJzgnLCAnLW1hJywgJzIwMCcsICctaW1hZScsICc8aW5maWxlLm1hZT4nLCAnLW9tYWUnLCAnPG91dGZpbGUubWFlPic=

>  <r_lp_tautomer_probability>  (158) 
1

>  <r_epik_Ionization_Penalty>  (158) 
3.41828e-12

>  <r_epik_Ionization_Penalty_Charging>  (158) 
0

>  <r_epik_Ionization_Penalty_Neutral>  (158) 
3.41828e-12

>  <r_epik_State_Penalty>  (158) 
-0

>  <r_epik_Charging_Adjusted_Penalty>  (158) 
0

>  <i_epik_Tot_Q>  (158) 
0

>  <i_epik_Tot_abs_Q>  (158) 
0

>  <s_lp_Force_Field>  (158) 
OPLS3e

>  <r_lp_Energy>  (158) 
15.4628

>  <b_lp_Chiralities_Consistent>  (158) 
1

>  <s_lp_Variant>  (158) 
50:0-1

>  <s_i_glide_gridfile>  (158) 
pfpi4k_grid

>  <i_i_glide_lignum>  (158) 
2

>  <i_i_glide_rotatable_bonds>  (158) 
0

>  <r_i_docking_score>  (158) 
-3.14338

>  <r_i_glide_ligand_efficiency>  (158) 
-0.209558

>  <r_i_glide_ligand_efficiency_sa>  (158) 
-0.516816

>  <r_i_glide_ligand_efficiency_ln>  (158) 
-0.847717

>  <r_i_glide_gscore>  (158) 
-3.14338

>  <r_i_glide_lipo>  (158) 
-0.0822083

>  <r_i_glide_hbond>  (158) 
0

>  <r_i_glide_metal>  (158) 
-0

>  <r_i_glide_rewards>  (158) 
-1.92109

>  <r_i_glide_evdw>  (158) 
-16.6361

>  <r_i_glide_ecoul>  (158) 
-1.59201

>  <r_i_glide_erotb>  (158) 
0

>  <r_i_glide_esite>  (158) 
-0.0694697

>  <r_i_glide_emodel>  (158) 
-22.5082

>  <r_i_glide_energy>  (158) 
-18.2281

>  <r_i_glide_einternal>  (158) 
0

>  <r_i_glide_intrahb_reward>  (158) 
-0

>  <i_i_glide_confnum>  (158) 
1

>  <i_i_glide_posenum>  (158) 
10

>  <r_i_glide_eff_state_penalty>  (158) 
0

>  <ligand_id>  (158) 
50

>  <original_smiles>  (158) 
C1Cc2sc3c(nnc4nnnn43)c2C1

>  <smiles>  (158) 
[H]C1([H])c2sc3c(nnc4nnnn43)c2C([H])([H])C1([H])[H]

$$$$
50:0:2
     RDKit          3D

 21 24  0  0  1  0  0  0  0  0999 V2000
   -2.5203    3.8514   10.3550 C   0  0  0  0  0  0  0  0  0  0  0  0
   -1.6320    2.5840   10.3010 C   0  0  0  0  0  0  0  0  0  0  0  0
   -1.5107    2.3105    8.8511 C   0  0  0  0  0  0  0  0  0  0  0  0
   -0.5484    1.1040    7.9998 S   0  0  0  0  0  0  0  0  0  0  0  0
   -1.1695    1.7212    6.5219 C   0  0  0  0  0  0  0  0  0  0  0  0
   -2.0618    2.8089    6.6691 C   0  0  0  0  0  0  0  0  0  0  0  0
   -2.5798    3.3395    5.5359 N   0  0  0  0  0  0  0  0  0  0  0  0
   -2.2180    2.8254    4.3369 N   0  0  0  0  0  0  0  0  0  0  0  0
   -1.3518    1.7632    4.2589 C   0  0  0  0  0  0  0  0  0  0  0  0
   -0.8970    1.1150    3.1885 N   0  0  0  0  0  0  0  0  0  0  0  0
   -0.0391    0.1180    3.7138 N   0  0  0  0  0  0  0  0  0  0  0  0
    0.0156    0.1484    5.0183 N   0  0  0  0  0  0  0  0  0  0  0  0
   -0.8007    1.1738    5.3081 N   0  0  0  0  0  0  0  0  0  0  0  0
   -2.2545    3.1543    8.0668 C   0  0  0  0  0  0  0  0  0  0  0  0
   -3.0069    4.1439    8.9025 C   0  0  0  0  0  0  0  0  0  0  0  0
   -1.9249    4.6832   10.7336 H   0  0  0  0  0  0  0  0  0  0  0  0
   -3.3378    3.7360   11.0696 H   0  0  0  0  0  0  0  0  0  0  0  0
   -0.6715    2.7507   10.7803 H   0  0  0  0  0  0  0  0  0  0  0  0
   -2.0985    1.7622   10.8391 H   0  0  0  0  0  0  0  0  0  0  0  0
   -4.0835    3.9804    8.8429 H   0  0  0  0  0  0  0  0  0  0  0  0
   -2.7889    5.1767    8.6261 H   0  0  0  0  0  0  0  0  0  0  0  0
  1 15  1  0
  1  2  1  0
  1 16  1  0
  1 17  1  0
  2  3  1  0
  2 18  1  0
  2 19  1  0
  3 14  2  0
  3  4  1  0
  4  5  1  0
  5 13  1  0
  5  6  2  0
  6  7  1  0
  6 14  1  0
  7  8  2  0
  8  9  1  0
  9 13  1  0
  9 10  2  0
 10 11  1  0
 11 12  2  0
 12 13  1  0
 14 15  1  0
 15 20  1  0
 15 21  1  0
M  END
>  <i_m_ct_stereo_status>  (159) 
1

>  <s_m_source_file>  (159) 
/var/tmp/pbs.5083858.sched01/tmp41lhm64p/65tcrvjyjo.sdf

>  <i_m_source_file_index>  (159) 
2

>  <i_lp_mmshare_version>  (159) 
48012

>  <i_f3d_flags>  (159) 
0

>  <s_epik_input>  (159) 
W0NIMl0xW0NIMl1bQ0gyXWMoYzEyKWMzYyhzMiluNGMobm4zKW5ubjQ=

>  <s_epik_cmdline>  (159) 
J2VwaWtfcHl0aG9uJywgJy1waHQnLCAnMi4wJywgJy1waCcsICc3LjAnLCAnLXRuJywgJzgnLCAnLW1hJywgJzIwMCcsICctaW1hZScsICc8aW5maWxlLm1hZT4nLCAnLW9tYWUnLCAnPG91dGZpbGUubWFlPic=

>  <r_lp_tautomer_probability>  (159) 
1

>  <r_epik_Ionization_Penalty>  (159) 
3.41828e-12

>  <r_epik_Ionization_Penalty_Charging>  (159) 
0

>  <r_epik_Ionization_Penalty_Neutral>  (159) 
3.41828e-12

>  <r_epik_State_Penalty>  (159) 
-0

>  <r_epik_Charging_Adjusted_Penalty>  (159) 
0

>  <i_epik_Tot_Q>  (159) 
0

>  <i_epik_Tot_abs_Q>  (159) 
0

>  <s_lp_Force_Field>  (159) 
OPLS3e

>  <r_lp_Energy>  (159) 
15.4628

>  <b_lp_Chiralities_Consistent>  (159) 
1

>  <s_lp_Variant>  (159) 
50:0-1

>  <s_i_glide_gridfile>  (159) 
pfpi4k_grid

>  <i_i_glide_lignum>  (159) 
2

>  <i_i_glide_rotatable_bonds>  (159) 
0

>  <r_i_docking_score>  (159) 
-3.1309

>  <r_i_glide_ligand_efficiency>  (159) 
-0.208727

>  <r_i_glide_ligand_efficiency_sa>  (159) 
-0.514764

>  <r_i_glide_ligand_efficiency_ln>  (159) 
-0.844352

>  <r_i_glide_gscore>  (159) 
-3.1309

>  <r_i_glide_lipo>  (159) 
-0.186568

>  <r_i_glide_hbond>  (159) 
0

>  <r_i_glide_metal>  (159) 
-0

>  <r_i_glide_rewards>  (159) 
-1.92109

>  <r_i_glide_evdw>  (159) 
-19.8081

>  <r_i_glide_ecoul>  (159) 
0.736659

>  <r_i_glide_erotb>  (159) 
0

>  <r_i_glide_esite>  (159) 
-0.143329

>  <r_i_glide_emodel>  (159) 
-23.3297

>  <r_i_glide_energy>  (159) 
-19.0715

>  <r_i_glide_einternal>  (159) 
0

>  <r_i_glide_intrahb_reward>  (159) 
-0

>  <i_i_glide_confnum>  (159) 
1

>  <i_i_glide_posenum>  (159) 
3

>  <r_i_glide_eff_state_penalty>  (159) 
0

>  <ligand_id>  (159) 
50

>  <original_smiles>  (159) 
C1Cc2sc3c(nnc4nnnn43)c2C1

>  <smiles>  (159) 
[H]C1([H])c2sc3c(nnc4nnnn43)c2C([H])([H])C1([H])[H]

$$$$
51:0:0
     RDKit          3D

 53 59  0  0  1  0  0  0  0  0999 V2000
    2.2823   -1.9607    5.5224 O   0  0  0  0  0  0  0  0  0  0  0  0
    3.3812   -1.8960    4.7246 C   0  0  0  0  0  0  0  0  0  0  0  0
    4.2551   -0.7861    4.8067 C   0  0  0  0  0  0  0  0  0  0  0  0
    5.1568   -0.5587    3.7511 C   0  0  0  0  0  0  0  0  0  0  0  0
    5.3802   -1.5534    2.7771 C   0  0  0  0  0  0  0  0  0  0  0  0
    4.8001   -2.8285    3.0584 C   0  0  0  0  0  0  0  0  0  0  0  0
    3.5586   -2.8235    3.6853 C   0  0  0  0  0  0  0  0  0  0  0  0
    2.4673   -3.3653    3.0631 O   0  0  0  0  0  0  0  0  0  0  0  0
    2.6619   -3.8831    1.7341 C   0  0  2  0  0  0  0  0  0  0  0  0
    2.4268   -5.3660    1.9049 C   0  0  0  0  0  0  0  0  0  0  0  0
    1.2230   -5.8693    1.5597 N   0  0  0  0  0  0  0  0  0  0  0  0
    1.0249   -7.1838    1.7776 C   0  0  0  0  0  0  0  0  0  0  0  0
    2.0143   -8.0477    2.3036 C   0  0  0  0  0  0  0  0  0  0  0  0
    3.2789   -7.5095    2.6391 C   0  0  0  0  0  0  0  0  0  0  0  0
    3.4840   -6.1300    2.4420 C   0  0  0  0  0  0  0  0  0  0  0  0
    4.8050   -5.4390    2.7946 C   0  0  0  0  0  0  0  0  0  0  0  0
    5.0668   -4.0336    2.1354 C   0  0  2  0  0  0  0  0  0  0  0  0
    6.4129   -4.0964    1.6653 O   0  0  0  0  0  0  0  0  0  0  0  0
    4.0800   -3.7017    1.0352 C   0  0  1  0  0  0  0  0  0  0  0  0
    4.0659   -4.4902   -0.2860 C   0  0  0  0  0  0  0  0  0  0  0  0
    3.4742   -3.4647   -1.2781 C   0  0  0  0  0  0  0  0  0  0  0  0
    3.7270   -2.0954   -0.7540 N   0  0  2  0  0  0  0  0  0  0  0  0
    4.2258   -1.1343   -1.7661 C   0  0  0  0  0  0  0  0  0  0  0  0
    3.2305   -0.9059   -2.8897 C   0  0  0  0  0  0  0  0  0  0  0  0
    3.0186   -1.9133   -4.0018 C   0  0  0  0  0  0  0  0  0  0  0  0
    3.6870   -0.6084   -4.3061 C   0  0  0  0  0  0  0  0  0  0  0  0
    4.5849   -2.3642    0.4030 C   0  0  1  0  0  0  0  0  0  0  0  0
    5.1833   -1.2235    1.2873 C   0  0  0  0  0  0  0  0  0  0  0  0
    2.2056   -1.2344    6.1138 H   0  0  0  0  0  0  0  0  0  0  0  0
    4.0562   -0.0186    5.5219 H   0  0  0  0  0  0  0  0  0  0  0  0
    5.5080    0.4596    3.5876 H   0  0  0  0  0  0  0  0  0  0  0  0
    1.8979   -3.4532    1.0882 H   0  0  0  0  0  0  0  0  0  0  0  0
    0.0459   -7.5603    1.5304 H   0  0  0  0  0  0  0  0  0  0  0  0
    1.8013   -9.0907    2.4396 H   0  0  0  0  0  0  0  0  0  0  0  0
    4.0619   -8.1445    3.0417 H   0  0  0  0  0  0  0  0  0  0  0  0
    4.9424   -5.3915    3.8734 H   0  0  0  0  0  0  0  0  0  0  0  0
    5.5672   -6.1298    2.4388 H   0  0  0  0  0  0  0  0  0  0  0  0
    6.6595   -3.2816    1.2644 H   0  0  0  0  0  0  0  0  0  0  0  0
    5.0821   -4.7441   -0.6067 H   0  0  0  0  0  0  0  0  0  0  0  0
    3.5062   -5.4253   -0.3132 H   0  0  0  0  0  0  0  0  0  0  0  0
    4.0111   -3.6874   -2.2038 H   0  0  0  0  0  0  0  0  0  0  0  0
    2.4042   -3.6119   -1.4447 H   0  0  0  0  0  0  0  0  0  0  0  0
    4.4076   -0.1744   -1.2858 H   0  0  0  0  0  0  0  0  0  0  0  0
    5.1800   -1.4498   -2.1997 H   0  0  0  0  0  0  0  0  0  0  0  0
    2.3617   -0.3226   -2.5838 H   0  0  0  0  0  0  0  0  0  0  0  0
    3.6697   -2.7834   -4.1433 H   0  0  0  0  0  0  0  0  0  0  0  0
    1.9812   -2.0384   -4.3177 H   0  0  0  0  0  0  0  0  0  0  0  0
    3.1187    0.0709   -4.9376 H   0  0  0  0  0  0  0  0  0  0  0  0
    4.7499   -0.6621   -4.5262 H   0  0  0  0  0  0  0  0  0  0  0  0
    5.5146   -2.6408   -0.1086 H   0  0  0  0  0  0  0  0  0  0  0  0
    4.5659   -0.3238    1.1835 H   0  0  0  0  0  0  0  0  0  0  0  0
    6.1706   -0.9461    0.9013 H   0  0  0  0  0  0  0  0  0  0  0  0
    2.8315   -1.7303   -0.4051 H   0  0  0  0  0  0  0  0  0  0  0  0
  1  2  1  0
  1 29  1  0
  2  7  2  0
  2  3  1  0
  3  4  2  0
  3 30  1  0
  4  5  1  0
  4 31  1  0
  5 28  1  0
  5  6  2  0
  6 17  1  0
  6  7  1  0
  7  8  1  0
  8  9  1  0
  9 19  1  0
  9 10  1  0
  9 32  1  6
 10 15  2  0
 10 11  1  0
 11 12  2  0
 12 13  1  0
 12 33  1  0
 13 14  2  0
 13 34  1  0
 14 15  1  0
 14 35  1  0
 15 16  1  0
 16 17  1  0
 16 36  1  0
 16 37  1  0
 17 18  1  6
 17 19  1  0
 18 38  1  0
 19 27  1  0
 19 20  1  6
 20 21  1  0
 20 39  1  0
 20 40  1  0
 21 22  1  0
 21 41  1  0
 21 42  1  0
 22 23  1  0
 22 27  1  0
 22 53  1  1
 23 24  1  0
 23 43  1  0
 23 44  1  0
 24 26  1  0
 24 25  1  0
 24 45  1  0
 25 26  1  0
 25 46  1  0
 25 47  1  0
 26 48  1  0
 26 49  1  0
 27 28  1  0
 27 50  1  6
 28 51  1  0
 28 52  1  0
M  CHG  1  22   1
M  END
>  <i_m_ct_stereo_status>  (160) 
1

>  <s_m_source_file>  (160) 
/var/tmp/pbs.5083858.sched01/tmp41lhm64p/65tcrvjyjo.sdf

>  <i_m_source_file_index>  (160) 
3

>  <i_lp_mmshare_version>  (160) 
48012

>  <i_f3d_flags>  (160) 
0

>  <s_epik_input>  (160) 
W0NIMl0xW0NIMl1bQ0hdMVtDSDJdTihbQ0gyXVtDSDJdMilbQ0BIXTNbQ0gyXWMoW2NIXVtjSF1jKFtPSF0pYzRPNSljNFtDQEBdNihbT0hdKVtDSDJdYyhjN1tDQEBIXTVbQ0BAXTIzNilbY0hdW2NIXVtjSF1uNw==

>  <s_epik_cmdline>  (160) 
J2VwaWtfcHl0aG9uJywgJy1waHQnLCAnMi4wJywgJy1waCcsICc3LjAnLCAnLXRuJywgJzgnLCAnLW1hJywgJzIwMCcsICctaW1hZScsICc8aW5maWxlLm1hZT4nLCAnLW9tYWUnLCAnPG91dGZpbGUubWFlPic=

>  <r_lp_tautomer_probability>  (160) 
1

>  <r_epik_Ionization_Penalty>  (160) 
0.0103071

>  <r_epik_Ionization_Penalty_Charging>  (160) 
0.00387679

>  <r_epik_Ionization_Penalty_Neutral>  (160) 
0.00643026

>  <r_epik_State_Penalty>  (160) 
-0

>  <r_epik_Charging_Adjusted_Penalty>  (160) 
0.00387679

>  <i_epik_Tot_Q>  (160) 
1

>  <i_epik_Tot_abs_Q>  (160) 
1

>  <s_lp_Force_Field>  (160) 
OPLS3e

>  <r_lp_Energy>  (160) 
142.936

>  <b_lp_Chiralities_Consistent>  (160) 
1

>  <s_lp_Variant>  (160) 
51:0-1

>  <s_i_glide_gridfile>  (160) 
pfpi4k_grid

>  <i_i_glide_lignum>  (160) 
3

>  <i_i_glide_rotatable_bonds>  (160) 
4

>  <r_i_docking_score>  (160) 
-3.94244

>  <r_i_glide_ligand_efficiency>  (160) 
-0.140801

>  <r_i_glide_ligand_efficiency_sa>  (160) 
-0.427556

>  <r_i_glide_ligand_efficiency_ln>  (160) 
-0.910031

>  <r_i_glide_gscore>  (160) 
-3.94244

>  <r_i_glide_lipo>  (160) 
-0.734342

>  <r_i_glide_hbond>  (160) 
-0.219385

>  <r_i_glide_metal>  (160) 
-0

>  <r_i_glide_rewards>  (160) 
-0.835526

>  <r_i_glide_evdw>  (160) 
-26.6682

>  <r_i_glide_ecoul>  (160) 
-6.90253

>  <r_i_glide_erotb>  (160) 
0.271892

>  <r_i_glide_esite>  (160) 
-0.0562876

>  <r_i_glide_emodel>  (160) 
-40.0816

>  <r_i_glide_energy>  (160) 
-33.5707

>  <r_i_glide_einternal>  (160) 
2.01012

>  <r_i_glide_intrahb_reward>  (160) 
-0

>  <i_i_glide_confnum>  (160) 
1

>  <i_i_glide_posenum>  (160) 
23

>  <r_i_glide_eff_state_penalty>  (160) 
0

>  <ligand_id>  (160) 
51

>  <original_smiles>  (160) 
Oc1ccc2c3c1OC1c4ncccc4CC3(O)C13CCN(CC1CC1)C3C2

>  <smiles>  (160) 
[H]Oc1c([H])c([H])c2c3c1OC1([H])c4nc([H])c([H])c([H])c4C([H])([H])C3(O[H])C13C([H])([H])C([H])([H])[N+]([H])(C([H])([H])C1([H])C([H])([H])C1([H])[H])C3([H])C2([H])[H]

$$$$
51:0:1
     RDKit          3D

 53 59  0  0  1  0  0  0  0  0999 V2000
    7.1678   -8.4883    6.9258 O   0  0  0  0  0  0  0  0  0  0  0  0
    7.3782   -8.6515    5.5885 C   0  0  0  0  0  0  0  0  0  0  0  0
    8.6551   -8.4154    5.0525 C   0  0  0  0  0  0  0  0  0  0  0  0
    8.7628   -8.2046    3.6633 C   0  0  0  0  0  0  0  0  0  0  0  0
    7.6691   -8.5036    2.8169 C   0  0  0  0  0  0  0  0  0  0  0  0
    6.5902   -9.1998    3.4022 C   0  0  0  0  0  0  0  0  0  0  0  0
    6.2868   -8.8659    4.7266 C   0  0  0  0  0  0  0  0  0  0  0  0
    5.0815   -8.2877    5.0100 O   0  0  0  0  0  0  0  0  0  0  0  0
    4.1743   -8.0704    3.9127 C   0  0  2  0  0  0  0  0  0  0  0  0
    3.0479   -9.0215    4.2240 C   0  0  0  0  0  0  0  0  0  0  0  0
    1.9431   -8.5265    4.8134 N   0  0  0  0  0  0  0  0  0  0  0  0
    0.9669   -9.4068    5.1200 C   0  0  0  0  0  0  0  0  0  0  0  0
    1.0434  -10.7791    4.8189 C   0  0  0  0  0  0  0  0  0  0  0  0
    2.2025  -11.2808    4.1972 C   0  0  0  0  0  0  0  0  0  0  0  0
    3.2391  -10.3773    3.8969 C   0  0  0  0  0  0  0  0  0  0  0  0
    4.5425  -10.8290    3.2351 C   0  0  0  0  0  0  0  0  0  0  0  0
    5.4018   -9.6998    2.5469 C   0  0  2  0  0  0  0  0  0  0  0  0
    5.8160  -10.2390    1.2863 O   0  0  0  0  0  0  0  0  0  0  0  0
    4.6526   -8.3720    2.4160 C   0  0  1  0  0  0  0  0  0  0  0  0
    3.4437   -8.2006    1.4600 C   0  0  0  0  0  0  0  0  0  0  0  0
    3.4600   -6.6775    1.1365 C   0  0  0  0  0  0  0  0  0  0  0  0
    4.8538   -6.1966    1.3495 N   0  0  2  0  0  0  0  0  0  0  0  0
    5.3644   -5.2960    0.2812 C   0  0  0  0  0  0  0  0  0  0  0  0
    4.7645   -3.9004    0.3811 C   0  0  0  0  0  0  0  0  0  0  0  0
    3.5830   -3.4950   -0.4761 C   0  0  0  0  0  0  0  0  0  0  0  0
    4.9419   -2.9168   -0.7621 C   0  0  0  0  0  0  0  0  0  0  0  0
    5.6005   -7.4447    1.5946 C   0  0  1  0  0  0  0  0  0  0  0  0
    7.1451   -7.4409    1.8367 C   0  0  0  0  0  0  0  0  0  0  0  0
    6.2645   -8.6179    7.1693 H   0  0  0  0  0  0  0  0  0  0  0  0
    9.4669   -8.1516    5.7084 H   0  0  0  0  0  0  0  0  0  0  0  0
    9.6127   -7.6498    3.2815 H   0  0  0  0  0  0  0  0  0  0  0  0
    3.8187   -7.0423    3.9785 H   0  0  0  0  0  0  0  0  0  0  0  0
    0.0995   -8.9973    5.6162 H   0  0  0  0  0  0  0  0  0  0  0  0
    0.2265  -11.4327    5.0834 H   0  0  0  0  0  0  0  0  0  0  0  0
    2.2899  -12.3307    3.9636 H   0  0  0  0  0  0  0  0  0  0  0  0
    5.1442  -11.4083    3.9367 H   0  0  0  0  0  0  0  0  0  0  0  0
    4.2230  -11.5434    2.4833 H   0  0  0  0  0  0  0  0  0  0  0  0
    5.1462  -10.8333    0.9557 H   0  0  0  0  0  0  0  0  0  0  0  0
    3.5974   -8.7831    0.5446 H   0  0  0  0  0  0  0  0  0  0  0  0
    2.4727   -8.5148    1.8476 H   0  0  0  0  0  0  0  0  0  0  0  0
    3.1221   -6.5009    0.1171 H   0  0  0  0  0  0  0  0  0  0  0  0
    2.7872   -6.1273    1.7922 H   0  0  0  0  0  0  0  0  0  0  0  0
    6.4428   -5.1842    0.3686 H   0  0  0  0  0  0  0  0  0  0  0  0
    5.1668   -5.7050   -0.7095 H   0  0  0  0  0  0  0  0  0  0  0  0
    4.8320   -3.4450    1.3697 H   0  0  0  0  0  0  0  0  0  0  0  0
    3.1880   -4.2430   -1.1609 H   0  0  0  0  0  0  0  0  0  0  0  0
    2.8401   -2.8336   -0.0284 H   0  0  0  0  0  0  0  0  0  0  0  0
    5.0738   -1.8617   -0.5254 H   0  0  0  0  0  0  0  0  0  0  0  0
    5.4531   -3.2532   -1.6621 H   0  0  0  0  0  0  0  0  0  0  0  0
    5.6017   -7.8716    0.5891 H   0  0  0  0  0  0  0  0  0  0  0  0
    7.4704   -6.4534    2.1674 H   0  0  0  0  0  0  0  0  0  0  0  0
    7.6654   -7.6199    0.8936 H   0  0  0  0  0  0  0  0  0  0  0  0
    4.8743   -5.6849    2.2193 H   0  0  0  0  0  0  0  0  0  0  0  0
  1  2  1  0
  1 29  1  0
  2  7  2  0
  2  3  1  0
  3  4  2  0
  3 30  1  0
  4  5  1  0
  4 31  1  0
  5 28  1  0
  5  6  2  0
  6 17  1  0
  6  7  1  0
  7  8  1  0
  8  9  1  0
  9 19  1  0
  9 10  1  0
  9 32  1  6
 10 15  2  0
 10 11  1  0
 11 12  2  0
 12 13  1  0
 12 33  1  0
 13 14  2  0
 13 34  1  0
 14 15  1  0
 14 35  1  0
 15 16  1  0
 16 17  1  0
 16 36  1  0
 16 37  1  0
 17 18  1  6
 17 19  1  0
 18 38  1  0
 19 27  1  0
 19 20  1  6
 20 21  1  0
 20 39  1  0
 20 40  1  0
 21 22  1  0
 21 41  1  0
 21 42  1  0
 22 23  1  0
 22 27  1  0
 22 53  1  1
 23 24  1  0
 23 43  1  0
 23 44  1  0
 24 26  1  0
 24 25  1  0
 24 45  1  0
 25 26  1  0
 25 46  1  0
 25 47  1  0
 26 48  1  0
 26 49  1  0
 27 28  1  0
 27 50  1  6
 28 51  1  0
 28 52  1  0
M  CHG  1  22   1
M  END
>  <i_m_ct_stereo_status>  (161) 
1

>  <s_m_source_file>  (161) 
/var/tmp/pbs.5083858.sched01/tmp41lhm64p/65tcrvjyjo.sdf

>  <i_m_source_file_index>  (161) 
3

>  <i_lp_mmshare_version>  (161) 
48012

>  <i_f3d_flags>  (161) 
0

>  <s_epik_input>  (161) 
W0NIMl0xW0NIMl1bQ0hdMVtDSDJdTihbQ0gyXVtDSDJdMilbQ0BIXTNbQ0gyXWMoW2NIXVtjSF1jKFtPSF0pYzRPNSljNFtDQEBdNihbT0hdKVtDSDJdYyhjN1tDQEBIXTVbQ0BAXTIzNilbY0hdW2NIXVtjSF1uNw==

>  <s_epik_cmdline>  (161) 
J2VwaWtfcHl0aG9uJywgJy1waHQnLCAnMi4wJywgJy1waCcsICc3LjAnLCAnLXRuJywgJzgnLCAnLW1hJywgJzIwMCcsICctaW1hZScsICc8aW5maWxlLm1hZT4nLCAnLW9tYWUnLCAnPG91dGZpbGUubWFlPic=

>  <r_lp_tautomer_probability>  (161) 
1

>  <r_epik_Ionization_Penalty>  (161) 
0.0103071

>  <r_epik_Ionization_Penalty_Charging>  (161) 
0.00387679

>  <r_epik_Ionization_Penalty_Neutral>  (161) 
0.00643026

>  <r_epik_State_Penalty>  (161) 
-0

>  <r_epik_Charging_Adjusted_Penalty>  (161) 
0.00387679

>  <i_epik_Tot_Q>  (161) 
1

>  <i_epik_Tot_abs_Q>  (161) 
1

>  <s_lp_Force_Field>  (161) 
OPLS3e

>  <r_lp_Energy>  (161) 
142.936

>  <b_lp_Chiralities_Consistent>  (161) 
1

>  <s_lp_Variant>  (161) 
51:0-1

>  <s_i_glide_gridfile>  (161) 
pfpi4k_grid

>  <i_i_glide_lignum>  (161) 
3

>  <i_i_glide_rotatable_bonds>  (161) 
4

>  <r_i_docking_score>  (161) 
-3.37723

>  <r_i_glide_ligand_efficiency>  (161) 
-0.120615

>  <r_i_glide_ligand_efficiency_sa>  (161) 
-0.366259

>  <r_i_glide_ligand_efficiency_ln>  (161) 
-0.779564

>  <r_i_glide_gscore>  (161) 
-3.37723

>  <r_i_glide_lipo>  (161) 
-0.386748

>  <r_i_glide_hbond>  (161) 
-0.16

>  <r_i_glide_metal>  (161) 
-0

>  <r_i_glide_rewards>  (161) 
-0.835526

>  <r_i_glide_evdw>  (161) 
-23.2779

>  <r_i_glide_ecoul>  (161) 
-7.35302

>  <r_i_glide_erotb>  (161) 
0.271892

>  <r_i_glide_esite>  (161) 
0

>  <r_i_glide_emodel>  (161) 
-36.905

>  <r_i_glide_energy>  (161) 
-30.6309

>  <r_i_glide_einternal>  (161) 
0.83076

>  <r_i_glide_intrahb_reward>  (161) 
-0

>  <i_i_glide_confnum>  (161) 
4

>  <i_i_glide_posenum>  (161) 
37

>  <r_i_glide_eff_state_penalty>  (161) 
0

>  <ligand_id>  (161) 
51

>  <original_smiles>  (161) 
Oc1ccc2c3c1OC1c4ncccc4CC3(O)C13CCN(CC1CC1)C3C2

>  <smiles>  (161) 
[H]Oc1c([H])c([H])c2c3c1OC1([H])c4nc([H])c([H])c([H])c4C([H])([H])C3(O[H])C13C([H])([H])C([H])([H])[N+]([H])(C([H])([H])C1([H])C([H])([H])C1([H])[H])C3([H])C2([H])[H]

$$$$
51:0:2
     RDKit          3D

 53 59  0  0  1  0  0  0  0  0999 V2000
    4.3296  -10.5251    8.2555 O   0  0  0  0  0  0  0  0  0  0  0  0
    5.0915  -10.8903    7.1825 C   0  0  0  0  0  0  0  0  0  0  0  0
    6.4212  -11.2987    7.3827 C   0  0  0  0  0  0  0  0  0  0  0  0
    7.3028  -11.3111    6.2755 C   0  0  0  0  0  0  0  0  0  0  0  0
    6.7930  -11.1871    4.9594 C   0  0  0  0  0  0  0  0  0  0  0  0
    5.3853  -11.2194    4.8382 C   0  0  0  0  0  0  0  0  0  0  0  0
    4.6151  -10.6650    5.8718 C   0  0  0  0  0  0  0  0  0  0  0  0
    3.8358   -9.5718    5.6136 O   0  0  0  0  0  0  0  0  0  0  0  0
    3.8112   -9.0894    4.2555 C   0  0  2  0  0  0  0  0  0  0  0  0
    2.4018   -9.3915    3.8251 C   0  0  0  0  0  0  0  0  0  0  0  0
    1.4999   -8.3899    3.8653 N   0  0  0  0  0  0  0  0  0  0  0  0
    0.2377   -8.7032    3.5134 C   0  0  0  0  0  0  0  0  0  0  0  0
   -0.1530   -9.9833    3.0753 C   0  0  0  0  0  0  0  0  0  0  0  0
    0.8012  -11.0213    3.0466 C   0  0  0  0  0  0  0  0  0  0  0  0
    2.1220  -10.7151    3.4327 C   0  0  0  0  0  0  0  0  0  0  0  0
    3.2373  -11.7672    3.4385 C   0  0  0  0  0  0  0  0  0  0  0  0
    4.7050  -11.2115    3.4529 C   0  0  2  0  0  0  0  0  0  0  0  0
    5.4197  -11.9847    2.4930 O   0  0  0  0  0  0  0  0  0  0  0  0
    4.7922   -9.7257    3.1632 C   0  0  1  0  0  0  0  0  0  0  0  0
    4.4475   -9.1245    1.7768 C   0  0  0  0  0  0  0  0  0  0  0  0
    5.2847   -7.8216    1.7435 C   0  0  0  0  0  0  0  0  0  0  0  0
    6.4293   -8.0031    2.6771 N   0  0  2  0  0  0  0  0  0  0  0  0
    7.7397   -7.5352    2.1553 C   0  0  0  0  0  0  0  0  0  0  0  0
    7.8158   -6.0187    2.0906 C   0  0  0  0  0  0  0  0  0  0  0  0
    7.3308   -5.2481    0.8849 C   0  0  0  0  0  0  0  0  0  0  0  0
    8.8029   -5.3413    1.1587 C   0  0  0  0  0  0  0  0  0  0  0  0
    6.3169   -9.4170    3.0687 C   0  0  1  0  0  0  0  0  0  0  0  0
    7.3421  -10.0814    4.0402 C   0  0  0  0  0  0  0  0  0  0  0  0
    3.4139  -10.4341    8.0373 H   0  0  0  0  0  0  0  0  0  0  0  0
    6.8087  -11.3619    8.3902 H   0  0  0  0  0  0  0  0  0  0  0  0
    8.3687  -11.2312    6.4644 H   0  0  0  0  0  0  0  0  0  0  0  0
    3.9583   -8.0122    4.2967 H   0  0  0  0  0  0  0  0  0  0  0  0
   -0.4835   -7.9030    3.5749 H   0  0  0  0  0  0  0  0  0  0  0  0
   -1.1781  -10.1731    2.8011 H   0  0  0  0  0  0  0  0  0  0  0  0
    0.5317  -12.0223    2.7284 H   0  0  0  0  0  0  0  0  0  0  0  0
    3.0655  -12.4839    4.2434 H   0  0  0  0  0  0  0  0  0  0  0  0
    3.0650  -12.3319    2.5221 H   0  0  0  0  0  0  0  0  0  0  0  0
    4.9376  -12.0346    1.6604 H   0  0  0  0  0  0  0  0  0  0  0  0
    4.7718   -9.7945    0.9766 H   0  0  0  0  0  0  0  0  0  0  0  0
    3.3929   -8.9261    1.5821 H   0  0  0  0  0  0  0  0  0  0  0  0
    5.6001   -7.6225    0.7287 H   0  0  0  0  0  0  0  0  0  0  0  0
    4.6973   -6.9616    2.0496 H   0  0  0  0  0  0  0  0  0  0  0  0
    8.5540   -7.8655    2.7952 H   0  0  0  0  0  0  0  0  0  0  0  0
    7.9417   -7.9402    1.1699 H   0  0  0  0  0  0  0  0  0  0  0  0
    7.7156   -5.5223    3.0515 H   0  0  0  0  0  0  0  0  0  0  0  0
    6.9288   -5.8317    0.0671 H   0  0  0  0  0  0  0  0  0  0  0  0
    6.8384   -4.2934    1.0610 H   0  0  0  0  0  0  0  0  0  0  0  0
    9.2885   -4.4217    1.4862 H   0  0  0  0  0  0  0  0  0  0  0  0
    9.4004   -5.9696    0.5006 H   0  0  0  0  0  0  0  0  0  0  0  0
    6.6469   -9.8992    2.1474 H   0  0  0  0  0  0  0  0  0  0  0  0
    7.8441   -9.3182    4.6335 H   0  0  0  0  0  0  0  0  0  0  0  0
    8.1278  -10.5555    3.4558 H   0  0  0  0  0  0  0  0  0  0  0  0
    6.2288   -7.4673    3.5058 H   0  0  0  0  0  0  0  0  0  0  0  0
  1  2  1  0
  1 29  1  0
  2  7  2  0
  2  3  1  0
  3  4  2  0
  3 30  1  0
  4  5  1  0
  4 31  1  0
  5 28  1  0
  5  6  2  0
  6 17  1  0
  6  7  1  0
  7  8  1  0
  8  9  1  0
  9 19  1  0
  9 10  1  0
  9 32  1  1
 10 15  2  0
 10 11  1  0
 11 12  2  0
 12 13  1  0
 12 33  1  0
 13 14  2  0
 13 34  1  0
 14 15  1  0
 14 35  1  0
 15 16  1  0
 16 17  1  0
 16 36  1  0
 16 37  1  0
 17 18  1  6
 17 19  1  0
 18 38  1  0
 19 27  1  0
 19 20  1  6
 20 21  1  0
 20 39  1  0
 20 40  1  0
 21 22  1  0
 21 41  1  0
 21 42  1  0
 22 23  1  0
 22 27  1  0
 22 53  1  1
 23 24  1  0
 23 43  1  0
 23 44  1  0
 24 26  1  0
 24 25  1  0
 24 45  1  0
 25 26  1  0
 25 46  1  0
 25 47  1  0
 26 48  1  0
 26 49  1  0
 27 28  1  0
 27 50  1  6
 28 51  1  0
 28 52  1  0
M  CHG  1  22   1
M  END
>  <i_m_ct_stereo_status>  (162) 
1

>  <s_m_source_file>  (162) 
/var/tmp/pbs.5083858.sched01/tmp41lhm64p/65tcrvjyjo.sdf

>  <i_m_source_file_index>  (162) 
3

>  <i_lp_mmshare_version>  (162) 
48012

>  <i_f3d_flags>  (162) 
0

>  <s_epik_input>  (162) 
W0NIMl0xW0NIMl1bQ0hdMVtDSDJdTihbQ0gyXVtDSDJdMilbQ0BIXTNbQ0gyXWMoW2NIXVtjSF1jKFtPSF0pYzRPNSljNFtDQEBdNihbT0hdKVtDSDJdYyhjN1tDQEBIXTVbQ0BAXTIzNilbY0hdW2NIXVtjSF1uNw==

>  <s_epik_cmdline>  (162) 
J2VwaWtfcHl0aG9uJywgJy1waHQnLCAnMi4wJywgJy1waCcsICc3LjAnLCAnLXRuJywgJzgnLCAnLW1hJywgJzIwMCcsICctaW1hZScsICc8aW5maWxlLm1hZT4nLCAnLW9tYWUnLCAnPG91dGZpbGUubWFlPic=

>  <r_lp_tautomer_probability>  (162) 
1

>  <r_epik_Ionization_Penalty>  (162) 
0.0103071

>  <r_epik_Ionization_Penalty_Charging>  (162) 
0.00387679

>  <r_epik_Ionization_Penalty_Neutral>  (162) 
0.00643026

>  <r_epik_State_Penalty>  (162) 
-0

>  <r_epik_Charging_Adjusted_Penalty>  (162) 
0.00387679

>  <i_epik_Tot_Q>  (162) 
1

>  <i_epik_Tot_abs_Q>  (162) 
1

>  <s_lp_Force_Field>  (162) 
OPLS3e

>  <r_lp_Energy>  (162) 
142.936

>  <b_lp_Chiralities_Consistent>  (162) 
1

>  <s_lp_Variant>  (162) 
51:0-1

>  <s_i_glide_gridfile>  (162) 
pfpi4k_grid

>  <i_i_glide_lignum>  (162) 
3

>  <i_i_glide_rotatable_bonds>  (162) 
4

>  <r_i_docking_score>  (162) 
-3.29229

>  <r_i_glide_ligand_efficiency>  (162) 
-0.117582

>  <r_i_glide_ligand_efficiency_sa>  (162) 
-0.357047

>  <r_i_glide_ligand_efficiency_ln>  (162) 
-0.759956

>  <r_i_glide_gscore>  (162) 
-3.29229

>  <r_i_glide_lipo>  (162) 
-0.363975

>  <r_i_glide_hbond>  (162) 
-0.16

>  <r_i_glide_metal>  (162) 
-0

>  <r_i_glide_rewards>  (162) 
-0.835526

>  <r_i_glide_evdw>  (162) 
-22.792

>  <r_i_glide_ecoul>  (162) 
-7.10052

>  <r_i_glide_erotb>  (162) 
0.271892

>  <r_i_glide_esite>  (162) 
0

>  <r_i_glide_emodel>  (162) 
-36.3055

>  <r_i_glide_energy>  (162) 
-29.8925

>  <r_i_glide_einternal>  (162) 
0.617472

>  <r_i_glide_intrahb_reward>  (162) 
-0

>  <i_i_glide_confnum>  (162) 
1

>  <i_i_glide_posenum>  (162) 
28

>  <r_i_glide_eff_state_penalty>  (162) 
0

>  <ligand_id>  (162) 
51

>  <original_smiles>  (162) 
Oc1ccc2c3c1OC1c4ncccc4CC3(O)C13CCN(CC1CC1)C3C2

>  <smiles>  (162) 
[H]Oc1c([H])c([H])c2c3c1OC1([H])c4nc([H])c([H])c([H])c4C([H])([H])C3(O[H])C13C([H])([H])C([H])([H])[N+]([H])(C([H])([H])C1([H])C([H])([H])C1([H])[H])C3([H])C2([H])[H]

$$$$
52:0:0
     RDKit          3D

 94105  0  0  1  0  0  0  0  0999 V2000
    7.2546    0.4154    5.6905 O   0  0  0  0  0  0  0  0  0  0  0  0
    5.9363    0.7335    5.8166 C   0  0  0  0  0  0  0  0  0  0  0  0
    5.5516    1.6972    6.8063 C   0  0  0  0  0  0  0  0  0  0  0  0
    4.1931    2.0504    6.9813 C   0  0  0  0  0  0  0  0  0  0  0  0
    3.2135    1.5113    6.1353 C   0  0  0  0  0  0  0  0  0  0  0  0
    3.6757    0.6038    5.1415 C   0  0  0  0  0  0  0  0  0  0  0  0
    4.9614    0.1374    4.9957 C   0  0  0  0  0  0  0  0  0  0  0  0
    5.0701   -0.8520    4.0432 O   0  0  0  0  0  0  0  0  0  0  0  0
    3.7385   -1.2689    3.6644 C   0  0  1  0  0  0  0  0  0  0  0  0
    3.4206   -2.6011    4.4122 C   0  0  2  0  0  0  0  0  0  0  0  0
    4.4009   -3.7782    4.2931 C   0  0  1  0  0  0  0  0  0  0  0  0
    5.5451   -3.9287    5.3322 C   0  0  0  0  0  0  0  0  0  0  0  0
    6.5458   -5.1423    5.2869 C   0  0  2  0  0  0  0  0  0  0  0  0
    6.5776   -6.0202    4.0235 C   0  0  0  0  0  0  0  0  0  0  0  0
    5.8994   -7.3325    4.4129 C   0  0  1  0  0  0  0  0  0  0  0  0
    6.2550   -7.5493    5.8908 C   0  0  0  0  0  0  0  0  0  0  0  0
    6.5717   -6.1557    6.4661 C   0  0  2  0  0  0  0  0  0  0  0  0
    5.9328   -5.7752    7.6875 O   0  0  0  0  0  0  0  0  0  0  0  0
    4.5779   -6.0568    7.8506 C   0  0  0  0  0  0  0  0  0  0  0  0
    3.8294   -5.4611    6.8376 O   0  0  0  0  0  0  0  0  0  0  0  0
    2.8362   -6.2458    6.2851 C   0  0  2  0  0  0  0  0  0  0  0  0
    3.2356   -7.5564    5.9754 O   0  0  0  0  0  0  0  0  0  0  0  0
    3.4793   -7.8477    4.6323 C   0  0  1  0  0  0  0  0  0  0  0  0
    3.7808   -9.3592    4.5370 C   0  0  0  0  0  0  0  0  0  0  0  0
    4.3632   -9.9151    3.3687 C   0  0  0  0  0  0  0  0  0  0  0  0
    4.6399  -11.2975    3.2808 C   0  0  0  0  0  0  0  0  0  0  0  0
    4.3095  -12.1610    4.3407 C   0  0  0  0  0  0  0  0  0  0  0  0
    4.6519  -13.8484    4.2304 Cl  0  0  0  0  0  0  0  0  0  0  0  0
    3.7015  -11.6324    5.4957 C   0  0  0  0  0  0  0  0  0  0  0  0
    3.4389  -10.2479    5.5908 C   0  0  0  0  0  0  0  0  0  0  0  0
    2.3624   -7.6140    3.8258 O   0  0  0  0  0  0  0  0  0  0  0  0
    1.4921   -6.4682    4.3481 O   0  0  0  0  0  0  0  0  0  0  0  0
    2.2608   -5.4976    5.0481 C   0  0  1  0  0  0  0  0  0  0  0  0
    1.2241   -4.4778    5.5269 C   0  0  0  0  0  0  0  0  0  0  0  0
    1.0885   -3.5537    4.3243 C   0  0  0  0  0  0  0  0  0  0  0  0
    2.4394   -3.4604    3.7329 N   0  0  2  0  0  0  0  0  0  0  0  0
    3.1694   -4.6927    4.0454 C   0  0  1  0  0  0  0  0  0  0  0  0
    4.5347   -7.0957    4.1087 O   0  0  0  0  0  0  0  0  0  0  0  0
    2.8600   -0.0093    4.0493 C   0  0  2  0  0  0  0  0  0  0  0  0
    2.7789    0.9573    2.8363 C   0  0  0  0  0  0  0  0  0  0  0  0
    2.1628    2.3178    3.2175 C   0  0  0  0  0  0  0  0  0  0  0  0
    0.8546    2.1518    3.8860 N   0  0  1  0  0  0  0  0  0  0  0  0
   -0.2442    1.9695    2.9136 C   0  0  0  0  0  0  0  0  0  0  0  0
   -1.6211    2.1187    3.5252 C   0  0  0  0  0  0  0  0  0  0  0  0
   -2.6188    3.0909    2.9291 C   0  0  0  0  0  0  0  0  0  0  0  0
   -2.0057    3.3759    4.2723 C   0  0  0  0  0  0  0  0  0  0  0  0
    0.8813    1.1717    5.0061 C   0  0  2  0  0  0  0  0  0  0  0  0
    1.6976    1.6762    6.2126 C   0  0  0  0  0  0  0  0  0  0  0  0
    1.4257   -0.1878    4.5417 C   0  0  0  0  0  0  0  0  0  0  0  0
    7.8224    0.8844    6.2736 H   0  0  0  0  0  0  0  0  0  0  0  0
    6.2911    2.1421    7.4413 H   0  0  0  0  0  0  0  0  0  0  0  0
    3.9042    2.7409    7.7718 H   0  0  0  0  0  0  0  0  0  0  0  0
    3.7414   -1.4233    2.5789 H   0  0  0  0  0  0  0  0  0  0  0  0
    3.1992   -2.4607    5.4700 H   0  0  0  0  0  0  0  0  0  0  0  0
    4.8600   -3.6705    3.3094 H   0  0  0  0  0  0  0  0  0  0  0  0
    6.1805   -3.0521    5.1954 H   0  0  0  0  0  0  0  0  0  0  0  0
    5.2002   -3.7349    6.3471 H   0  0  0  0  0  0  0  0  0  0  0  0
    7.5217   -4.6588    5.3249 H   0  0  0  0  0  0  0  0  0  0  0  0
    6.1488   -5.5627    3.1316 H   0  0  0  0  0  0  0  0  0  0  0  0
    7.6179   -6.2421    3.7789 H   0  0  0  0  0  0  0  0  0  0  0  0
    6.2749   -8.1492    3.7985 H   0  0  0  0  0  0  0  0  0  0  0  0
    5.5322   -8.1417    6.4432 H   0  0  0  0  0  0  0  0  0  0  0  0
    7.1648   -8.1497    5.9316 H   0  0  0  0  0  0  0  0  0  0  0  0
    7.6214   -6.2164    6.7596 H   0  0  0  0  0  0  0  0  0  0  0  0
    4.4261   -7.1273    7.9791 H   0  0  0  0  0  0  0  0  0  0  0  0
    4.2910   -5.6004    8.7974 H   0  0  0  0  0  0  0  0  0  0  0  0
    2.0701   -6.3704    7.0520 H   0  0  0  0  0  0  0  0  0  0  0  0
    4.6198   -9.2791    2.5390 H   0  0  0  0  0  0  0  0  0  0  0  0
    5.0979  -11.7040    2.3920 H   0  0  0  0  0  0  0  0  0  0  0  0
    3.4173  -12.2917    6.3029 H   0  0  0  0  0  0  0  0  0  0  0  0
    2.9620   -9.8961    6.4924 H   0  0  0  0  0  0  0  0  0  0  0  0
    0.2737   -4.9230    5.8096 H   0  0  0  0  0  0  0  0  0  0  0  0
    1.6038   -3.9117    6.3804 H   0  0  0  0  0  0  0  0  0  0  0  0
    0.4298   -4.0158    3.5889 H   0  0  0  0  0  0  0  0  0  0  0  0
    0.5919   -2.6323    4.6079 H   0  0  0  0  0  0  0  0  0  0  0  0
    3.3104   -5.2260    3.1019 H   0  0  0  0  0  0  0  0  0  0  0  0
    3.7674    1.1184    2.4130 H   0  0  0  0  0  0  0  0  0  0  0  0
    2.1828    0.5016    2.0403 H   0  0  0  0  0  0  0  0  0  0  0  0
    2.8431    2.8666    3.8661 H   0  0  0  0  0  0  0  0  0  0  0  0
    2.0605    2.9465    2.3319 H   0  0  0  0  0  0  0  0  0  0  0  0
   -0.1452    2.7238    2.1418 H   0  0  0  0  0  0  0  0  0  0  0  0
   -0.1808    1.0122    2.3953 H   0  0  0  0  0  0  0  0  0  0  0  0
   -2.0425    1.1843    3.8972 H   0  0  0  0  0  0  0  0  0  0  0  0
   -2.2930    3.7001    2.0865 H   0  0  0  0  0  0  0  0  0  0  0  0
   -3.6699    2.8075    2.9166 H   0  0  0  0  0  0  0  0  0  0  0  0
   -2.6337    3.2510    5.1536 H   0  0  0  0  0  0  0  0  0  0  0  0
   -1.2448    4.1520    4.3384 H   0  0  0  0  0  0  0  0  0  0  0  0
   -0.1392    1.0310    5.3640 H   0  0  0  0  0  0  0  0  0  0  0  0
    1.3846    1.1142    7.0917 H   0  0  0  0  0  0  0  0  0  0  0  0
    1.4609    2.7189    6.4322 H   0  0  0  0  0  0  0  0  0  0  0  0
    0.7918   -0.6018    3.7555 H   0  0  0  0  0  0  0  0  0  0  0  0
    1.4141   -0.8329    5.4150 H   0  0  0  0  0  0  0  0  0  0  0  0
    0.6568    3.0513    4.3173 H   0  0  0  0  0  0  0  0  0  0  0  0
    2.4394   -3.2616    2.7373 H   0  0  0  0  0  0  0  0  0  0  0  0
  1  2  1  0
  1 50  1  0
  2  7  2  0
  2  3  1  0
  3  4  2  0
  3 51  1  0
  4  5  1  0
  4 52  1  0
  5 48  1  0
  5  6  2  0
  6 39  1  0
  6  7  1  0
  7  8  1  0
  8  9  1  0
  9 10  1  0
  9 39  1  0
  9 53  1  6
 10 36  1  0
 10 11  1  0
 10 54  1  1
 11 37  1  0
 11 12  1  0
 11 55  1  6
 12 13  1  0
 12 56  1  0
 12 57  1  0
 13 17  1  0
 13 14  1  0
 13 58  1  1
 14 15  1  0
 14 59  1  0
 14 60  1  0
 15 38  1  0
 15 16  1  0
 15 61  1  6
 16 17  1  0
 16 62  1  0
 16 63  1  0
 17 18  1  0
 17 64  1  1
 18 19  1  0
 19 20  1  0
 19 65  1  0
 19 66  1  0
 20 21  1  0
 21 33  1  0
 21 22  1  0
 21 67  1  1
 22 23  1  0
 23 24  1  1
 23 31  1  0
 23 38  1  0
 24 30  1  0
 24 25  2  0
 25 26  1  0
 25 68  1  0
 26 27  2  0
 26 69  1  0
 27 28  1  0
 27 29  1  0
 29 30  2  0
 29 70  1  0
 30 71  1  0
 31 32  1  0
 33 32  1  6
 33 37  1  0
 33 34  1  0
 34 35  1  0
 34 72  1  0
 34 73  1  0
 35 36  1  0
 35 74  1  0
 35 75  1  0
 36 37  1  0
 36 94  1  6
 37 76  1  6
 39 49  1  0
 39 40  1  6
 40 41  1  0
 40 77  1  0
 40 78  1  0
 41 42  1  0
 41 79  1  0
 41 80  1  0
 42 43  1  0
 42 47  1  0
 42 93  1  1
 43 44  1  0
 43 81  1  0
 43 82  1  0
 44 46  1  0
 44 45  1  0
 44 83  1  0
 45 46  1  0
 45 84  1  0
 45 85  1  0
 46 86  1  0
 46 87  1  0
 47 48  1  0
 47 49  1  0
 47 88  1  1
 48 89  1  0
 48 90  1  0
 49 91  1  0
 49 92  1  0
M  CHG  2  36   1  42   1
M  END
>  <i_m_ct_stereo_status>  (163) 
1

>  <s_m_source_file>  (163) 
/var/tmp/pbs.5083858.sched01/tmp41lhm64p/65tcrvjyjo.sdf

>  <i_m_source_file_index>  (163) 
4

>  <i_lp_mmshare_version>  (163) 
48012

>  <i_f3d_flags>  (163) 
0

>  <s_epik_input>  (163) 
W0NIMl0xW0NIMl1bQ0hdMVtDSDJdTihbQ0gyXVtDSDJdMilbQ0BASF0oW0NIMl0zKVtDSDJdYyhjNFtDQF0yMzUpW2NIXVtjSF1jKFtPSF0pYzRPW0NASF01W0NASF02TihbQ0gyXVtDSDJdNylbQ0BIXThbQ0BASF02W0NIMl1bQ0BASF0oW0NASF05T1tDSDJdT1tDQEhdMVtDQEBdMjc4KVtDSDJdW0NAQEhdKFtDSDJdOSlPW0NAQF0oTzEpKE9PMiljMVtjSF1bY0hdYyhDbClbY0hdW2NIXTE=

>  <s_epik_cmdline>  (163) 
J2VwaWtfcHl0aG9uJywgJy1waHQnLCAnMi4wJywgJy1waCcsICc3LjAnLCAnLXRuJywgJzgnLCAnLW1hJywgJzIwMCcsICctaW1hZScsICc8aW5maWxlLm1hZT4nLCAnLW9tYWUnLCAnPG91dGZpbGUubWFlPic=

>  <r_lp_tautomer_probability>  (163) 
1

>  <r_epik_Ionization_Penalty>  (163) 
0.387166

>  <r_epik_Ionization_Penalty_Charging>  (163) 
0.363764

>  <r_epik_Ionization_Penalty_Neutral>  (163) 
0.0234024

>  <r_epik_State_Penalty>  (163) 
0.359363

>  <r_epik_Charging_Adjusted_Penalty>  (163) 
0.723127

>  <i_epik_Tot_Q>  (163) 
2

>  <i_epik_Tot_abs_Q>  (163) 
2

>  <s_epik_Chemistry_Notes>  (163) 
This compound contains an acetal/aminal-like group ( X-CH(R)-Y where X, Y are N, S, or O) that may be acid/base labile, releasing an aldehyde.

>  <s_lp_Force_Field>  (163) 
OPLS3e

>  <r_lp_Energy>  (163) 
122.588

>  <b_lp_Chiralities_Consistent>  (163) 
1

>  <s_lp_Variant>  (163) 
52:0-1

>  <s_i_glide_gridfile>  (163) 
pfpi4k_grid

>  <i_i_glide_lignum>  (163) 
4

>  <i_i_glide_rotatable_bonds>  (163) 
5

>  <r_i_docking_score>  (163) 
-2.79133

>  <r_i_glide_ligand_efficiency>  (163) 
-0.056966

>  <r_i_glide_ligand_efficiency_sa>  (163) 
-0.208456

>  <r_i_glide_ligand_efficiency_ln>  (163) 
-0.570613

>  <r_i_glide_gscore>  (163) 
-2.79133

>  <r_i_glide_lipo>  (163) 
-0.215989

>  <r_i_glide_hbond>  (163) 
0

>  <r_i_glide_metal>  (163) 
-0

>  <r_i_glide_rewards>  (163) 
0

>  <r_i_glide_evdw>  (163) 
-30.2392

>  <r_i_glide_ecoul>  (163) 
-6.95153

>  <r_i_glide_erotb>  (163) 
0.00603701

>  <r_i_glide_esite>  (163) 
-0.0266953

>  <r_i_glide_emodel>  (163) 
-41.147

>  <r_i_glide_energy>  (163) 
-37.1907

>  <r_i_glide_einternal>  (163) 
3.23885

>  <r_i_glide_intrahb_reward>  (163) 
-0

>  <i_i_glide_confnum>  (163) 
1

>  <i_i_glide_posenum>  (163) 
40

>  <r_i_glide_eff_state_penalty>  (163) 
0

>  <ligand_id>  (163) 
52

>  <original_smiles>  (163) 
Oc1ccc2c3c1OC(C1C4CC5CC6CC5OCOC5OC(c7ccc(Cl)cc7)(OOC57CCN1C47)O6)C31CCN(CC3CC3)C(C2)C1

>  <smiles>  (163) 
[H]Oc1c([H])c([H])c2c3c1OC([H])(C1([H])C4([H])C([H])([H])C5([H])C([H])([H])C6([H])OC7(c8c([H])c([H])c(Cl)c([H])c8[H])OOC8(C([H])(OC([H])([H])OC5([H])C6([H])[H])O7)C([H])([H])C([H])([H])[N+]1([H])C48[H])C31C([H])([H])C([H])([H])[N+]([H])(C([H])([H])C3([H])C([H])([H])C3([H])[H])C([H])(C2([H])[H])C1([H])[H]

$$$$
52:0:1
     RDKit          3D

 94105  0  0  1  0  0  0  0  0999 V2000
    4.1205    3.9012    6.7839 O   0  0  0  0  0  0  0  0  0  0  0  0
    2.7611    3.8467    6.7224 C   0  0  0  0  0  0  0  0  0  0  0  0
    1.9865    4.5649    7.6668 C   0  0  0  0  0  0  0  0  0  0  0  0
    0.5655    4.4847    7.6862 C   0  0  0  0  0  0  0  0  0  0  0  0
   -0.0832    3.7380    6.6815 C   0  0  0  0  0  0  0  0  0  0  0  0
    0.7525    3.1300    5.7323 C   0  0  0  0  0  0  0  0  0  0  0  0
    2.1316    3.0480    5.7235 C   0  0  0  0  0  0  0  0  0  0  0  0
    2.6485    2.1985    4.7780 O   0  0  0  0  0  0  0  0  0  0  0  0
    1.5479    1.4612    4.2024 C   0  0  1  0  0  0  0  0  0  0  0  0
    1.5694    0.0354    4.8530 C   0  0  2  0  0  0  0  0  0  0  0  0
    2.7035   -0.9359    4.4783 C   0  0  1  0  0  0  0  0  0  0  0  0
    4.0097   -0.9639    5.3041 C   0  0  0  0  0  0  0  0  0  0  0  0
    5.1600   -1.9757    4.9788 C   0  0  2  0  0  0  0  0  0  0  0  0
    5.1206   -2.7441    3.6384 C   0  0  0  0  0  0  0  0  0  0  0  0
    4.7466   -4.1885    3.9928 C   0  0  1  0  0  0  0  0  0  0  0  0
    5.3941   -4.4322    5.3674 C   0  0  0  0  0  0  0  0  0  0  0  0
    5.5691   -3.0518    6.0322 C   0  0  2  0  0  0  0  0  0  0  0  0
    5.0954   -2.8909    7.3747 O   0  0  0  0  0  0  0  0  0  0  0  0
    3.8525   -3.4145    7.7199 C   0  0  0  0  0  0  0  0  0  0  0  0
    2.8540   -2.8931    6.8997 O   0  0  0  0  0  0  0  0  0  0  0  0
    1.9280   -3.7984    6.4255 C   0  0  2  0  0  0  0  0  0  0  0  0
    2.4736   -4.9932    5.9522 O   0  0  0  0  0  0  0  0  0  0  0  0
    2.5193   -5.1305    4.5627 C   0  0  1  0  0  0  0  0  0  0  0  0
    3.0436   -6.5391    4.2280 C   0  0  0  0  0  0  0  0  0  0  0  0
    3.5301   -7.4262    5.2292 C   0  0  0  0  0  0  0  0  0  0  0  0
    3.9960   -8.7194    4.8966 C   0  0  0  0  0  0  0  0  0  0  0  0
    3.9845   -9.1586    3.5566 C   0  0  0  0  0  0  0  0  0  0  0  0
    4.5660  -10.7449    3.1615 Cl  0  0  0  0  0  0  0  0  0  0  0  0
    3.5042   -8.2925    2.5482 C   0  0  0  0  0  0  0  0  0  0  0  0
    3.0442   -6.9949    2.8849 C   0  0  0  0  0  0  0  0  0  0  0  0
    1.2460   -5.0408    3.9672 O   0  0  0  0  0  0  0  0  0  0  0  0
    0.3150   -4.0860    4.6908 O   0  0  0  0  0  0  0  0  0  0  0  0
    1.0465   -3.0773    5.3657 C   0  0  1  0  0  0  0  0  0  0  0  0
   -0.0429   -2.3202    6.0993 C   0  0  0  0  0  0  0  0  0  0  0  0
   -0.5580   -1.3873    5.0353 C   0  0  0  0  0  0  0  0  0  0  0  0
    0.6369   -0.9430    4.2476 N   0  0  2  0  0  0  0  0  0  0  0  0
    1.6289   -2.0422    4.3239 C   0  0  1  0  0  0  0  0  0  0  0  0
    3.3279   -4.1754    3.9499 O   0  0  0  0  0  0  0  0  0  0  0  0
    0.3115    2.3972    4.4992 C   0  0  2  0  0  0  0  0  0  0  0  0
    0.0886    3.3672    3.3395 C   0  0  0  0  0  0  0  0  0  0  0  0
   -0.9445    4.4400    3.6764 C   0  0  0  0  0  0  0  0  0  0  0  0
   -2.2223    3.8582    4.1314 N   0  0  1  0  0  0  0  0  0  0  0  0
   -3.0766    3.3931    3.0113 C   0  0  0  0  0  0  0  0  0  0  0  0
   -3.8130    4.5407    2.3481 C   0  0  0  0  0  0  0  0  0  0  0  0
   -5.3200    4.7465    2.4715 C   0  0  0  0  0  0  0  0  0  0  0  0
   -4.7507    4.2529    1.2168 C   0  0  0  0  0  0  0  0  0  0  0  0
   -2.0272    2.8573    5.1953 C   0  0  2  0  0  0  0  0  0  0  0  0
   -1.5738    3.4390    6.5535 C   0  0  0  0  0  0  0  0  0  0  0  0
   -1.0524    1.7918    4.7602 C   0  0  0  0  0  0  0  0  0  0  0  0
    4.5266    3.3232    6.1616 H   0  0  0  0  0  0  0  0  0  0  0  0
    2.4701    5.1613    8.4376 H   0  0  0  0  0  0  0  0  0  0  0  0
   -0.0202    4.9872    8.4412 H   0  0  0  0  0  0  0  0  0  0  0  0
    1.7604    1.3915    3.1313 H   0  0  0  0  0  0  0  0  0  0  0  0
    1.4741    0.0614    5.9372 H   0  0  0  0  0  0  0  0  0  0  0  0
    2.9845   -0.6882    3.4569 H   0  0  0  0  0  0  0  0  0  0  0  0
    4.4640    0.0154    5.1598 H   0  0  0  0  0  0  0  0  0  0  0  0
    3.8060   -0.9145    6.3663 H   0  0  0  0  0  0  0  0  0  0  0  0
    6.0137   -1.2993    4.9345 H   0  0  0  0  0  0  0  0  0  0  0  0
    4.4811   -2.2974    2.8793 H   0  0  0  0  0  0  0  0  0  0  0  0
    6.1185   -2.7426    3.1973 H   0  0  0  0  0  0  0  0  0  0  0  0
    5.1103   -4.8882    3.2399 H   0  0  0  0  0  0  0  0  0  0  0  0
    4.8653   -5.1607    5.9657 H   0  0  0  0  0  0  0  0  0  0  0  0
    6.3749   -4.8862    5.2151 H   0  0  0  0  0  0  0  0  0  0  0  0
    6.6505   -2.9455    6.1562 H   0  0  0  0  0  0  0  0  0  0  0  0
    3.9028   -4.5035    7.7662 H   0  0  0  0  0  0  0  0  0  0  0  0
    3.6722   -3.0841    8.7429 H   0  0  0  0  0  0  0  0  0  0  0  0
    1.3155   -4.1039    7.2762 H   0  0  0  0  0  0  0  0  0  0  0  0
    3.5504   -7.1355    6.2701 H   0  0  0  0  0  0  0  0  0  0  0  0
    4.3641   -9.3871    5.6702 H   0  0  0  0  0  0  0  0  0  0  0  0
    3.4940   -8.6361    1.5183 H   0  0  0  0  0  0  0  0  0  0  0  0
    2.6748   -6.3582    2.0913 H   0  0  0  0  0  0  0  0  0  0  0  0
   -0.8583   -2.9245    6.4957 H   0  0  0  0  0  0  0  0  0  0  0  0
    0.3362   -1.7173    6.9286 H   0  0  0  0  0  0  0  0  0  0  0  0
   -1.2578   -1.8592    4.3428 H   0  0  0  0  0  0  0  0  0  0  0  0
   -1.2200   -0.7290    5.5746 H   0  0  0  0  0  0  0  0  0  0  0  0
    1.6548   -2.4599    3.3186 H   0  0  0  0  0  0  0  0  0  0  0  0
    1.0207    3.8320    3.0428 H   0  0  0  0  0  0  0  0  0  0  0  0
   -0.2344    2.8047    2.4693 H   0  0  0  0  0  0  0  0  0  0  0  0
   -0.5637    5.1131    4.4299 H   0  0  0  0  0  0  0  0  0  0  0  0
   -1.1131    5.0648    2.8255 H   0  0  0  0  0  0  0  0  0  0  0  0
   -2.4713    2.8669    2.2857 H   0  0  0  0  0  0  0  0  0  0  0  0
   -3.8184    2.6795    3.3448 H   0  0  0  0  0  0  0  0  0  0  0  0
   -3.2212    5.4281    2.1708 H   0  0  0  0  0  0  0  0  0  0  0  0
   -5.8368    4.0538    3.1080 H   0  0  0  0  0  0  0  0  0  0  0  0
   -5.6682    5.7738    2.4824 H   0  0  0  0  0  0  0  0  0  0  0  0
   -4.7723    4.9487    0.3835 H   0  0  0  0  0  0  0  0  0  0  0  0
   -4.9157    3.2219    0.9355 H   0  0  0  0  0  0  0  0  0  0  0  0
   -2.9587    2.3746    5.4361 H   0  0  0  0  0  0  0  0  0  0  0  0
   -1.8113    2.7506    7.3700 H   0  0  0  0  0  0  0  0  0  0  0  0
   -2.1264    4.3229    6.8078 H   0  0  0  0  0  0  0  0  0  0  0  0
   -1.4394    1.1734    3.9321 H   0  0  0  0  0  0  0  0  0  0  0  0
   -0.9222    1.2773    5.6958 H   0  0  0  0  0  0  0  0  0  0  0  0
   -2.7636    4.5523    4.6067 H   0  0  0  0  0  0  0  0  0  0  0  0
    0.4162   -0.6561    3.2994 H   0  0  0  0  0  0  0  0  0  0  0  0
  1  2  1  0
  1 50  1  0
  2  7  2  0
  2  3  1  0
  3  4  2  0
  3 51  1  0
  4  5  1  0
  4 52  1  0
  5 48  1  0
  5  6  2  0
  6 39  1  0
  6  7  1  0
  7  8  1  0
  8  9  1  0
  9 10  1  0
  9 39  1  0
  9 53  1  6
 10 36  1  0
 10 11  1  0
 10 54  1  1
 11 37  1  0
 11 12  1  0
 11 55  1  6
 12 13  1  0
 12 56  1  0
 12 57  1  0
 13 17  1  0
 13 14  1  0
 13 58  1  6
 14 15  1  0
 14 59  1  0
 14 60  1  0
 15 38  1  0
 15 16  1  0
 15 61  1  6
 16 17  1  0
 16 62  1  0
 16 63  1  0
 17 18  1  0
 17 64  1  1
 18 19  1  0
 19 20  1  0
 19 65  1  0
 19 66  1  0
 20 21  1  0
 21 33  1  0
 21 22  1  0
 21 67  1  1
 22 23  1  0
 23 24  1  1
 23 31  1  0
 23 38  1  0
 24 30  1  0
 24 25  2  0
 25 26  1  0
 25 68  1  0
 26 27  2  0
 26 69  1  0
 27 28  1  0
 27 29  1  0
 29 30  2  0
 29 70  1  0
 30 71  1  0
 31 32  1  0
 33 32  1  6
 33 37  1  0
 33 34  1  0
 34 35  1  0
 34 72  1  0
 34 73  1  0
 35 36  1  0
 35 74  1  0
 35 75  1  0
 36 37  1  0
 36 94  1  6
 37 76  1  6
 39 49  1  0
 39 40  1  6
 40 41  1  0
 40 77  1  0
 40 78  1  0
 41 42  1  0
 41 79  1  0
 41 80  1  0
 42 43  1  0
 42 47  1  0
 42 93  1  1
 43 44  1  0
 43 81  1  0
 43 82  1  0
 44 46  1  0
 44 45  1  0
 44 83  1  0
 45 46  1  0
 45 84  1  0
 45 85  1  0
 46 86  1  0
 46 87  1  0
 47 48  1  0
 47 49  1  0
 47 88  1  1
 48 89  1  0
 48 90  1  0
 49 91  1  0
 49 92  1  0
M  CHG  2  36   1  42   1
M  END
>  <i_m_ct_stereo_status>  (164) 
1

>  <s_m_source_file>  (164) 
/var/tmp/pbs.5083858.sched01/tmp41lhm64p/65tcrvjyjo.sdf

>  <i_m_source_file_index>  (164) 
4

>  <i_lp_mmshare_version>  (164) 
48012

>  <i_f3d_flags>  (164) 
0

>  <s_epik_input>  (164) 
W0NIMl0xW0NIMl1bQ0hdMVtDSDJdTihbQ0gyXVtDSDJdMilbQ0BASF0oW0NIMl0zKVtDSDJdYyhjNFtDQF0yMzUpW2NIXVtjSF1jKFtPSF0pYzRPW0NASF01W0NASF02TihbQ0gyXVtDSDJdNylbQ0BIXThbQ0BASF02W0NIMl1bQ0BASF0oW0NASF05T1tDSDJdT1tDQEhdMVtDQEBdMjc4KVtDSDJdW0NAQEhdKFtDSDJdOSlPW0NAQF0oTzEpKE9PMiljMVtjSF1bY0hdYyhDbClbY0hdW2NIXTE=

>  <s_epik_cmdline>  (164) 
J2VwaWtfcHl0aG9uJywgJy1waHQnLCAnMi4wJywgJy1waCcsICc3LjAnLCAnLXRuJywgJzgnLCAnLW1hJywgJzIwMCcsICctaW1hZScsICc8aW5maWxlLm1hZT4nLCAnLW9tYWUnLCAnPG91dGZpbGUubWFlPic=

>  <r_lp_tautomer_probability>  (164) 
1

>  <r_epik_Ionization_Penalty>  (164) 
0.387166

>  <r_epik_Ionization_Penalty_Charging>  (164) 
0.363764

>  <r_epik_Ionization_Penalty_Neutral>  (164) 
0.0234024

>  <r_epik_State_Penalty>  (164) 
0.359363

>  <r_epik_Charging_Adjusted_Penalty>  (164) 
0.723127

>  <i_epik_Tot_Q>  (164) 
2

>  <i_epik_Tot_abs_Q>  (164) 
2

>  <s_epik_Chemistry_Notes>  (164) 
This compound contains an acetal/aminal-like group ( X-CH(R)-Y where X, Y are N, S, or O) that may be acid/base labile, releasing an aldehyde.

>  <s_lp_Force_Field>  (164) 
OPLS3e

>  <r_lp_Energy>  (164) 
122.588

>  <b_lp_Chiralities_Consistent>  (164) 
1

>  <s_lp_Variant>  (164) 
52:0-1

>  <s_i_glide_gridfile>  (164) 
pfpi4k_grid

>  <i_i_glide_lignum>  (164) 
4

>  <i_i_glide_rotatable_bonds>  (164) 
5

>  <r_i_docking_score>  (164) 
-1.3778

>  <r_i_glide_ligand_efficiency>  (164) 
-0.0281184

>  <r_i_glide_ligand_efficiency_sa>  (164) 
-0.102894

>  <r_i_glide_ligand_efficiency_ln>  (164) 
-0.281654

>  <r_i_glide_gscore>  (164) 
-1.3778

>  <r_i_glide_lipo>  (164) 
-0.400976

>  <r_i_glide_hbond>  (164) 
0

>  <r_i_glide_metal>  (164) 
-0

>  <r_i_glide_rewards>  (164) 
0

>  <r_i_glide_evdw>  (164) 
-17.2915

>  <r_i_glide_ecoul>  (164) 
-0.363025

>  <r_i_glide_erotb>  (164) 
0.00603701

>  <r_i_glide_esite>  (164) 
-0.0638345

>  <r_i_glide_emodel>  (164) 
-17.4472

>  <r_i_glide_energy>  (164) 
-17.6545

>  <r_i_glide_einternal>  (164) 
1.58277

>  <r_i_glide_intrahb_reward>  (164) 
-0

>  <i_i_glide_confnum>  (164) 
1

>  <i_i_glide_posenum>  (164) 
30

>  <r_i_glide_eff_state_penalty>  (164) 
0

>  <ligand_id>  (164) 
52

>  <original_smiles>  (164) 
Oc1ccc2c3c1OC(C1C4CC5CC6CC5OCOC5OC(c7ccc(Cl)cc7)(OOC57CCN1C47)O6)C31CCN(CC3CC3)C(C2)C1

>  <smiles>  (164) 
[H]Oc1c([H])c([H])c2c3c1OC([H])(C1([H])C4([H])C([H])([H])C5([H])C([H])([H])C6([H])OC7(c8c([H])c([H])c(Cl)c([H])c8[H])OOC8(C([H])(OC([H])([H])OC5([H])C6([H])[H])O7)C([H])([H])C([H])([H])[N+]1([H])C48[H])C31C([H])([H])C([H])([H])[N+]([H])(C([H])([H])C3([H])C([H])([H])C3([H])[H])C([H])(C2([H])[H])C1([H])[H]

$$$$
52:0:2
     RDKit          3D

 94105  0  0  1  0  0  0  0  0999 V2000
    2.8124    3.6901    8.8093 O   0  0  0  0  0  0  0  0  0  0  0  0
    1.5664    3.6368    8.2629 C   0  0  0  0  0  0  0  0  0  0  0  0
    0.4483    4.1205    8.9867 C   0  0  0  0  0  0  0  0  0  0  0  0
   -0.8594    4.0558    8.4512 C   0  0  0  0  0  0  0  0  0  0  0  0
   -1.0500    3.5636    7.1527 C   0  0  0  0  0  0  0  0  0  0  0  0
    0.1103    3.1582    6.4559 C   0  0  0  0  0  0  0  0  0  0  0  0
    1.3907    3.0904    6.9579 C   0  0  0  0  0  0  0  0  0  0  0  0
    2.2754    2.4891    6.1241 O   0  0  0  0  0  0  0  0  0  0  0  0
    1.5309    1.8931    5.0373 C   0  0  1  0  0  0  0  0  0  0  0  0
    1.4374    0.3657    5.3308 C   0  0  2  0  0  0  0  0  0  0  0  0
    2.7160   -0.4950    5.3661 C   0  0  1  0  0  0  0  0  0  0  0  0
    3.4447   -0.6950    6.7086 C   0  0  0  0  0  0  0  0  0  0  0  0
    4.7207   -1.5889    6.8161 C   0  0  2  0  0  0  0  0  0  0  0  0
    5.4056   -2.0379    5.5264 C   0  0  0  0  0  0  0  0  0  0  0  0
    5.0907   -3.5202    5.3414 C   0  0  1  0  0  0  0  0  0  0  0  0
    5.0356   -4.0789    6.7666 C   0  0  0  0  0  0  0  0  0  0  0  0
    4.7061   -2.8806    7.6840 C   0  0  2  0  0  0  0  0  0  0  0  0
    3.6377   -3.0298    8.6203 O   0  0  0  0  0  0  0  0  0  0  0  0
    2.4560   -3.6355    8.2032 C   0  0  0  0  0  0  0  0  0  0  0  0
    1.9071   -2.9520    7.1215 O   0  0  0  0  0  0  0  0  0  0  0  0
    1.4392   -3.7322    6.0834 C   0  0  2  0  0  0  0  0  0  0  0  0
    2.2870   -4.7833    5.7041 O   0  0  0  0  0  0  0  0  0  0  0  0
    3.0106   -4.6079    4.5271 C   0  0  1  0  0  0  0  0  0  0  0  0
    3.8006   -5.9047    4.2308 C   0  0  0  0  0  0  0  0  0  0  0  0
    3.4666   -7.1405    4.8522 C   0  0  0  0  0  0  0  0  0  0  0  0
    4.1928   -8.3120    4.5540 C   0  0  0  0  0  0  0  0  0  0  0  0
    5.2621   -8.2746    3.6379 C   0  0  0  0  0  0  0  0  0  0  0  0
    6.1591   -9.7078    3.2801 Cl  0  0  0  0  0  0  0  0  0  0  0  0
    5.5936   -7.0603    3.0102 C   0  0  0  0  0  0  0  0  0  0  0  0
    4.8594   -5.8946    3.2945 C   0  0  0  0  0  0  0  0  0  0  0  0
    2.1714   -4.4167    3.4240 O   0  0  0  0  0  0  0  0  0  0  0  0
    0.9107   -3.6359    3.7674 O   0  0  0  0  0  0  0  0  0  0  0  0
    1.0829   -2.7901    4.9004 C   0  0  1  0  0  0  0  0  0  0  0  0
   -0.3082   -2.2027    5.1537 C   0  0  0  0  0  0  0  0  0  0  0  0
   -0.3569   -1.0244    4.2208 C   0  0  0  0  0  0  0  0  0  0  0  0
    1.0041   -0.4549    4.1865 N   0  0  2  0  0  0  0  0  0  0  0  0
    1.9658   -1.5440    4.4925 C   0  0  1  0  0  0  0  0  0  0  0  0
    3.8770   -3.5121    4.6052 O   0  0  0  0  0  0  0  0  0  0  0  0
    0.1877    2.7138    5.0276 C   0  0  2  0  0  0  0  0  0  0  0  0
    0.3432    3.9350    4.0959 C   0  0  0  0  0  0  0  0  0  0  0  0
   -0.8222    4.9121    4.2621 C   0  0  0  0  0  0  0  0  0  0  0  0
   -2.1401    4.2426    4.0943 N   0  0  1  0  0  0  0  0  0  0  0  0
   -2.5405    4.0875    2.6780 C   0  0  0  0  0  0  0  0  0  0  0  0
   -3.7600    4.9024    2.2677 C   0  0  0  0  0  0  0  0  0  0  0  0
   -5.1395    4.3414    2.4731 C   0  0  0  0  0  0  0  0  0  0  0  0
   -4.5958    4.4524    1.1208 C   0  0  0  0  0  0  0  0  0  0  0  0
   -2.2951    3.0132    4.9260 C   0  0  2  0  0  0  0  0  0  0  0  0
   -2.3730    3.3152    6.4410 C   0  0  0  0  0  0  0  0  0  0  0  0
   -1.1315    2.0522    4.6581 C   0  0  0  0  0  0  0  0  0  0  0  0
    3.4960    3.5159    8.1844 H   0  0  0  0  0  0  0  0  0  0  0  0
    0.5873    4.5253    9.9783 H   0  0  0  0  0  0  0  0  0  0  0  0
   -1.7138    4.3870    9.0384 H   0  0  0  0  0  0  0  0  0  0  0  0
    2.1009    2.0542    4.1189 H   0  0  0  0  0  0  0  0  0  0  0  0
    0.8160    0.1365    6.2016 H   0  0  0  0  0  0  0  0  0  0  0  0
    3.4129   -0.0165    4.6758 H   0  0  0  0  0  0  0  0  0  0  0  0
    3.7902    0.2961    6.9865 H   0  0  0  0  0  0  0  0  0  0  0  0
    2.7510   -0.8927    7.5158 H   0  0  0  0  0  0  0  0  0  0  0  0
    5.4500   -0.9357    7.3001 H   0  0  0  0  0  0  0  0  0  0  0  0
    5.1936   -1.4407    4.6382 H   0  0  0  0  0  0  0  0  0  0  0  0
    6.4634   -1.9544    5.7459 H   0  0  0  0  0  0  0  0  0  0  0  0
    5.8738   -4.0034    4.7576 H   0  0  0  0  0  0  0  0  0  0  0  0
    4.3799   -4.9351    6.8654 H   0  0  0  0  0  0  0  0  0  0  0  0
    6.0223   -4.4689    7.0256 H   0  0  0  0  0  0  0  0  0  0  0  0
    5.5776   -2.7913    8.3390 H   0  0  0  0  0  0  0  0  0  0  0  0
    2.6089   -4.7043    8.0550 H   0  0  0  0  0  0  0  0  0  0  0  0
    1.7690   -3.5480    9.0444 H   0  0  0  0  0  0  0  0  0  0  0  0
    0.5413   -4.2352    6.4439 H   0  0  0  0  0  0  0  0  0  0  0  0
    2.6470   -7.2036    5.5516 H   0  0  0  0  0  0  0  0  0  0  0  0
    3.9317   -9.2440    5.0288 H   0  0  0  0  0  0  0  0  0  0  0  0
    6.4162   -7.0258    2.3144 H   0  0  0  0  0  0  0  0  0  0  0  0
    5.1309   -4.9727    2.7987 H   0  0  0  0  0  0  0  0  0  0  0  0
   -1.1062   -2.9036    4.9529 H   0  0  0  0  0  0  0  0  0  0  0  0
   -0.4340   -1.8474    6.1745 H   0  0  0  0  0  0  0  0  0  0  0  0
   -0.5046   -1.3684    3.2322 H   0  0  0  0  0  0  0  0  0  0  0  0
   -1.2288   -0.4196    4.3857 H   0  0  0  0  0  0  0  0  0  0  0  0
    2.5194   -1.7339    3.5640 H   0  0  0  0  0  0  0  0  0  0  0  0
    1.2744    4.4631    4.2849 H   0  0  0  0  0  0  0  0  0  0  0  0
    0.3828    3.6128    3.0577 H   0  0  0  0  0  0  0  0  0  0  0  0
   -0.7877    5.4030    5.2380 H   0  0  0  0  0  0  0  0  0  0  0  0
   -0.7317    5.7395    3.5501 H   0  0  0  0  0  0  0  0  0  0  0  0
   -1.7051    4.4249    2.0853 H   0  0  0  0  0  0  0  0  0  0  0  0
   -2.6743    3.0322    2.4130 H   0  0  0  0  0  0  0  0  0  0  0  0
   -3.6293    5.9792    2.3269 H   0  0  0  0  0  0  0  0  0  0  0  0
   -5.1389    3.3354    2.8663 H   0  0  0  0  0  0  0  0  0  0  0  0
   -5.9341    5.0261    2.7690 H   0  0  0  0  0  0  0  0  0  0  0  0
   -5.0308    5.1882    0.4515 H   0  0  0  0  0  0  0  0  0  0  0  0
   -4.3103    3.5010    0.6743 H   0  0  0  0  0  0  0  0  0  0  0  0
   -3.2494    2.5773    4.6208 H   0  0  0  0  0  0  0  0  0  0  0  0
   -2.8450    2.4631    6.9381 H   0  0  0  0  0  0  0  0  0  0  0  0
   -3.0356    4.1430    6.6356 H   0  0  0  0  0  0  0  0  0  0  0  0
   -1.1369    1.7015    3.6297 H   0  0  0  0  0  0  0  0  0  0  0  0
   -1.3086    1.2546    5.3581 H   0  0  0  0  0  0  0  0  0  0  0  0
   -2.8554    4.8587    4.4848 H   0  0  0  0  0  0  0  0  0  0  0  0
    1.2216    0.0145    3.2949 H   0  0  0  0  0  0  0  0  0  0  0  0
  1  2  1  0
  1 50  1  0
  2  7  2  0
  2  3  1  0
  3  4  2  0
  3 51  1  0
  4  5  1  0
  4 52  1  0
  5 48  1  0
  5  6  2  0
  6 39  1  0
  6  7  1  0
  7  8  1  0
  8  9  1  0
  9 10  1  0
  9 39  1  0
  9 53  1  6
 10 36  1  0
 10 11  1  0
 10 54  1  1
 11 37  1  0
 11 12  1  0
 11 55  1  6
 12 13  1  0
 12 56  1  0
 12 57  1  0
 13 17  1  0
 13 14  1  0
 13 58  1  1
 14 15  1  0
 14 59  1  0
 14 60  1  0
 15 38  1  0
 15 16  1  0
 15 61  1  6
 16 17  1  0
 16 62  1  0
 16 63  1  0
 17 18  1  0
 17 64  1  1
 18 19  1  0
 19 20  1  0
 19 65  1  0
 19 66  1  0
 20 21  1  0
 21 33  1  0
 21 22  1  0
 21 67  1  1
 22 23  1  0
 23 24  1  6
 23 31  1  0
 23 38  1  0
 24 30  1  0
 24 25  2  0
 25 26  1  0
 25 68  1  0
 26 27  2  0
 26 69  1  0
 27 28  1  0
 27 29  1  0
 29 30  2  0
 29 70  1  0
 30 71  1  0
 31 32  1  0
 33 32  1  6
 33 37  1  0
 33 34  1  0
 34 35  1  0
 34 72  1  0
 34 73  1  0
 35 36  1  0
 35 74  1  0
 35 75  1  0
 36 37  1  0
 36 94  1  6
 37 76  1  6
 39 49  1  0
 39 40  1  6
 40 41  1  0
 40 77  1  0
 40 78  1  0
 41 42  1  0
 41 79  1  0
 41 80  1  0
 42 43  1  0
 42 47  1  0
 42 93  1  1
 43 44  1  0
 43 81  1  0
 43 82  1  0
 44 46  1  0
 44 45  1  0
 44 83  1  0
 45 46  1  0
 45 84  1  0
 45 85  1  0
 46 86  1  0
 46 87  1  0
 47 48  1  0
 47 49  1  0
 47 88  1  6
 48 89  1  0
 48 90  1  0
 49 91  1  0
 49 92  1  0
M  CHG  2  36   1  42   1
M  END
>  <i_m_ct_stereo_status>  (165) 
1

>  <s_m_source_file>  (165) 
/var/tmp/pbs.5083858.sched01/tmp41lhm64p/65tcrvjyjo.sdf

>  <i_m_source_file_index>  (165) 
4

>  <i_lp_mmshare_version>  (165) 
48012

>  <i_f3d_flags>  (165) 
0

>  <s_epik_input>  (165) 
W0NIMl0xW0NIMl1bQ0hdMVtDSDJdTihbQ0gyXVtDSDJdMilbQ0BASF0oW0NIMl0zKVtDSDJdYyhjNFtDQF0yMzUpW2NIXVtjSF1jKFtPSF0pYzRPW0NASF01W0NASF02TihbQ0gyXVtDSDJdNylbQ0BIXThbQ0BASF02W0NIMl1bQ0BASF0oW0NASF05T1tDSDJdT1tDQEhdMVtDQEBdMjc4KVtDSDJdW0NAQEhdKFtDSDJdOSlPW0NAQF0oTzEpKE9PMiljMVtjSF1bY0hdYyhDbClbY0hdW2NIXTE=

>  <s_epik_cmdline>  (165) 
J2VwaWtfcHl0aG9uJywgJy1waHQnLCAnMi4wJywgJy1waCcsICc3LjAnLCAnLXRuJywgJzgnLCAnLW1hJywgJzIwMCcsICctaW1hZScsICc8aW5maWxlLm1hZT4nLCAnLW9tYWUnLCAnPG91dGZpbGUubWFlPic=

>  <r_lp_tautomer_probability>  (165) 
1

>  <r_epik_Ionization_Penalty>  (165) 
0.387166

>  <r_epik_Ionization_Penalty_Charging>  (165) 
0.363764

>  <r_epik_Ionization_Penalty_Neutral>  (165) 
0.0234024

>  <r_epik_State_Penalty>  (165) 
0.359363

>  <r_epik_Charging_Adjusted_Penalty>  (165) 
0.723127

>  <i_epik_Tot_Q>  (165) 
2

>  <i_epik_Tot_abs_Q>  (165) 
2

>  <s_epik_Chemistry_Notes>  (165) 
This compound contains an acetal/aminal-like group ( X-CH(R)-Y where X, Y are N, S, or O) that may be acid/base labile, releasing an aldehyde.

>  <s_lp_Force_Field>  (165) 
OPLS3e

>  <r_lp_Energy>  (165) 
122.588

>  <b_lp_Chiralities_Consistent>  (165) 
1

>  <s_lp_Variant>  (165) 
52:0-1

>  <s_i_glide_gridfile>  (165) 
pfpi4k_grid

>  <i_i_glide_lignum>  (165) 
4

>  <i_i_glide_rotatable_bonds>  (165) 
5

>  <r_i_docking_score>  (165) 
-0.797809

>  <r_i_glide_ligand_efficiency>  (165) 
-0.0162818

>  <r_i_glide_ligand_efficiency_sa>  (165) 
-0.0595801

>  <r_i_glide_ligand_efficiency_ln>  (165) 
-0.16309

>  <r_i_glide_gscore>  (165) 
-0.797809

>  <r_i_glide_lipo>  (165) 
-0.328311

>  <r_i_glide_hbond>  (165) 
0

>  <r_i_glide_metal>  (165) 
-0

>  <r_i_glide_rewards>  (165) 
0

>  <r_i_glide_evdw>  (165) 
-5.70831

>  <r_i_glide_ecoul>  (165) 
-0.707219

>  <r_i_glide_erotb>  (165) 
0.00603701

>  <r_i_glide_esite>  (165) 
-0.084037

>  <r_i_glide_emodel>  (165) 
-4.68992

>  <r_i_glide_energy>  (165) 
-6.41553

>  <r_i_glide_einternal>  (165) 
3.47875

>  <r_i_glide_intrahb_reward>  (165) 
-0

>  <i_i_glide_confnum>  (165) 
1

>  <i_i_glide_posenum>  (165) 
22

>  <r_i_glide_eff_state_penalty>  (165) 
0

>  <ligand_id>  (165) 
52

>  <original_smiles>  (165) 
Oc1ccc2c3c1OC(C1C4CC5CC6CC5OCOC5OC(c7ccc(Cl)cc7)(OOC57CCN1C47)O6)C31CCN(CC3CC3)C(C2)C1

>  <smiles>  (165) 
[H]Oc1c([H])c([H])c2c3c1OC([H])(C1([H])C4([H])C([H])([H])C5([H])C([H])([H])C6([H])OC7(c8c([H])c([H])c(Cl)c([H])c8[H])OOC8(C([H])(OC([H])([H])OC5([H])C6([H])[H])O7)C([H])([H])C([H])([H])[N+]1([H])C48[H])C31C([H])([H])C([H])([H])[N+]([H])(C([H])([H])C3([H])C([H])([H])C3([H])[H])C([H])(C2([H])[H])C1([H])[H]

$$$$
52:1:0
     RDKit          3D

 93104  0  0  1  0  0  0  0  0999 V2000
    7.2154    0.4156    5.6748 O   0  0  0  0  0  0  0  0  0  0  0  0
    5.9173    0.8038    5.8304 C   0  0  0  0  0  0  0  0  0  0  0  0
    5.5977    1.7531    6.8413 C   0  0  0  0  0  0  0  0  0  0  0  0
    4.2590    2.1693    7.0502 C   0  0  0  0  0  0  0  0  0  0  0  0
    3.2403    1.6901    6.2102 C   0  0  0  0  0  0  0  0  0  0  0  0
    3.6382    0.7896    5.1941 C   0  0  0  0  0  0  0  0  0  0  0  0
    4.9043    0.2766    5.0047 C   0  0  0  0  0  0  0  0  0  0  0  0
    4.9600   -0.6816    4.0207 O   0  0  0  0  0  0  0  0  0  0  0  0
    3.6008   -1.0427    3.6725 C   0  0  1  0  0  0  0  0  0  0  0  0
    3.2525   -2.3777    4.4002 C   0  0  2  0  0  0  0  0  0  0  0  0
    4.2478   -3.5449    4.3605 C   0  0  1  0  0  0  0  0  0  0  0  0
    5.2957   -3.6436    5.4974 C   0  0  0  0  0  0  0  0  0  0  0  0
    6.3003   -4.8438    5.5744 C   0  0  2  0  0  0  0  0  0  0  0  0
    6.4426   -5.7647    4.3459 C   0  0  0  0  0  0  0  0  0  0  0  0
    5.7335   -7.0710    4.7113 C   0  0  1  0  0  0  0  0  0  0  0  0
    5.9723   -7.2365    6.2198 C   0  0  0  0  0  0  0  0  0  0  0  0
    6.2290   -5.8241    6.7797 C   0  0  2  0  0  0  0  0  0  0  0  0
    5.4881   -5.4154    7.9348 O   0  0  0  0  0  0  0  0  0  0  0  0
    4.1254   -5.7046    7.9953 C   0  0  0  0  0  0  0  0  0  0  0  0
    3.4540   -5.1434    6.9133 O   0  0  0  0  0  0  0  0  0  0  0  0
    2.5120   -5.9454    6.3014 C   0  0  2  0  0  0  0  0  0  0  0  0
    2.9380   -7.2665    6.0633 O   0  0  0  0  0  0  0  0  0  0  0  0
    3.3064   -7.5863    4.7524 C   0  0  1  0  0  0  0  0  0  0  0  0
    3.6380   -9.0934    4.6976 C   0  0  0  0  0  0  0  0  0  0  0  0
    3.4746   -9.9474    5.8189 C   0  0  0  0  0  0  0  0  0  0  0  0
    3.7781  -11.3231    5.7340 C   0  0  0  0  0  0  0  0  0  0  0  0
    4.2472  -11.8724    4.5254 C   0  0  0  0  0  0  0  0  0  0  0  0
    4.6290  -13.5560    4.4196 Cl  0  0  0  0  0  0  0  0  0  0  0  0
    4.4082  -11.0373    3.4065 C   0  0  0  0  0  0  0  0  0  0  0  0
    4.1009   -9.6634    3.4886 C   0  0  0  0  0  0  0  0  0  0  0  0
    2.2562   -7.3765    3.8488 O   0  0  0  0  0  0  0  0  0  0  0  0
    1.3354   -6.2408    4.2715 O   0  0  0  0  0  0  0  0  0  0  0  0
    2.0362   -5.2363    5.0005 C   0  0  1  0  0  0  0  0  0  0  0  0
    0.9889   -4.1929    5.3419 C   0  0  0  0  0  0  0  0  0  0  0  0
    0.9866   -3.2982    4.1131 C   0  0  0  0  0  0  0  0  0  0  0  0
    2.3574   -3.2426    3.6185 N   0  0  0  0  0  0  0  0  0  0  0  0
    3.0377   -4.4797    4.0472 C   0  0  1  0  0  0  0  0  0  0  0  0
    4.3966   -6.8397    4.3035 O   0  0  0  0  0  0  0  0  0  0  0  0
    2.7755    0.2332    4.1078 C   0  0  2  0  0  0  0  0  0  0  0  0
    2.6978    1.2264    2.9180 C   0  0  0  0  0  0  0  0  0  0  0  0
    2.1678    2.6063    3.3350 C   0  0  0  0  0  0  0  0  0  0  0  0
    0.8567    2.4894    4.0281 N   0  0  1  0  0  0  0  0  0  0  0  0
   -0.2814    2.3401    3.0769 C   0  0  0  0  0  0  0  0  0  0  0  0
   -1.3924    3.3274    3.3487 C   0  0  0  0  0  0  0  0  0  0  0  0
   -2.5599    2.9574    4.2316 C   0  0  0  0  0  0  0  0  0  0  0  0
   -2.7600    3.0717    2.7475 C   0  0  0  0  0  0  0  0  0  0  0  0
    0.8646    1.4699    5.1268 C   0  0  2  0  0  0  0  0  0  0  0  0
    1.7298    1.9226    6.3248 C   0  0  0  0  0  0  0  0  0  0  0  0
    1.3387    0.0914    4.6218 C   0  0  0  0  0  0  0  0  0  0  0  0
    7.8196    0.8435    6.2627 H   0  0  0  0  0  0  0  0  0  0  0  0
    6.3716    2.1499    7.4774 H   0  0  0  0  0  0  0  0  0  0  0  0
    4.0200    2.8552    7.8608 H   0  0  0  0  0  0  0  0  0  0  0  0
    3.5733   -1.1775    2.5824 H   0  0  0  0  0  0  0  0  0  0  0  0
    2.8921   -2.2602    5.4233 H   0  0  0  0  0  0  0  0  0  0  0  0
    4.7763   -3.4534    3.4168 H   0  0  0  0  0  0  0  0  0  0  0  0
    5.9275   -2.7617    5.3816 H   0  0  0  0  0  0  0  0  0  0  0  0
    4.8573   -3.4241    6.4681 H   0  0  0  0  0  0  0  0  0  0  0  0
    7.2653   -4.3450    5.6825 H   0  0  0  0  0  0  0  0  0  0  0  0
    6.0928   -5.3296    3.4089 H   0  0  0  0  0  0  0  0  0  0  0  0
    7.5017   -5.9805    4.2005 H   0  0  0  0  0  0  0  0  0  0  0  0
    6.1409   -7.9105    4.1480 H   0  0  0  0  0  0  0  0  0  0  0  0
    5.2090   -7.8152    6.7294 H   0  0  0  0  0  0  0  0  0  0  0  0
    6.8806   -7.8240    6.3525 H   0  0  0  0  0  0  0  0  0  0  0  0
    7.2507   -5.8652    7.1622 H   0  0  0  0  0  0  0  0  0  0  0  0
    3.9701   -6.7742    8.1374 H   0  0  0  0  0  0  0  0  0  0  0  0
    3.7602   -5.2275    8.9041 H   0  0  0  0  0  0  0  0  0  0  0  0
    1.6826   -6.0528    7.0021 H   0  0  0  0  0  0  0  0  0  0  0  0
    3.1078   -9.5729    6.7619 H   0  0  0  0  0  0  0  0  0  0  0  0
    3.6304  -11.9719    6.5881 H   0  0  0  0  0  0  0  0  0  0  0  0
    4.7609  -11.4627    2.4788 H   0  0  0  0  0  0  0  0  0  0  0  0
    4.2301   -9.0412    2.6184 H   0  0  0  0  0  0  0  0  0  0  0  0
    0.0095   -4.6294    5.5228 H   0  0  0  0  0  0  0  0  0  0  0  0
    1.2723   -3.6107    6.2187 H   0  0  0  0  0  0  0  0  0  0  0  0
    0.3915   -3.7607    3.3332 H   0  0  0  0  0  0  0  0  0  0  0  0
    0.5207   -2.3389    4.3058 H   0  0  0  0  0  0  0  0  0  0  0  0
    3.2395   -5.0399    3.1292 H   0  0  0  0  0  0  0  0  0  0  0  0
    3.6788    1.3437    2.4663 H   0  0  0  0  0  0  0  0  0  0  0  0
    2.0584    0.8123    2.1310 H   0  0  0  0  0  0  0  0  0  0  0  0
    2.8817    3.1067    3.9868 H   0  0  0  0  0  0  0  0  0  0  0  0
    2.0806    3.2657    2.4745 H   0  0  0  0  0  0  0  0  0  0  0  0
    0.0443    2.5232    2.0598 H   0  0  0  0  0  0  0  0  0  0  0  0
   -0.6832    1.3314    3.0749 H   0  0  0  0  0  0  0  0  0  0  0  0
   -1.0838    4.3730    3.3188 H   0  0  0  0  0  0  0  0  0  0  0  0
   -2.5504    1.9611    4.6658 H   0  0  0  0  0  0  0  0  0  0  0  0
   -2.9822    3.7405    4.8558 H   0  0  0  0  0  0  0  0  0  0  0  0
   -3.3358    3.9231    2.3848 H   0  0  0  0  0  0  0  0  0  0  0  0
   -2.8928    2.1556    2.1730 H   0  0  0  0  0  0  0  0  0  0  0  0
   -0.1590    1.3854    5.4867 H   0  0  0  0  0  0  0  0  0  0  0  0
    1.4171    1.3618    7.2018 H   0  0  0  0  0  0  0  0  0  0  0  0
    1.5511    2.9706    6.5620 H   0  0  0  0  0  0  0  0  0  0  0  0
    0.6859   -0.2709    3.8272 H   0  0  0  0  0  0  0  0  0  0  0  0
    1.2985   -0.6123    5.4474 H   0  0  0  0  0  0  0  0  0  0  0  0
    0.7113    3.3839    4.4765 H   0  0  0  0  0  0  0  0  0  0  0  0
  1  2  1  0
  1 50  1  0
  2  7  2  0
  2  3  1  0
  3  4  2  0
  3 51  1  0
  4  5  1  0
  4 52  1  0
  5 48  1  0
  5  6  2  0
  6 39  1  0
  6  7  1  0
  7  8  1  0
  8  9  1  0
  9 10  1  0
  9 39  1  0
  9 53  1  6
 10 36  1  0
 10 11  1  0
 10 54  1  1
 11 37  1  0
 11 12  1  0
 11 55  1  6
 12 13  1  0
 12 56  1  0
 12 57  1  0
 13 17  1  0
 13 14  1  0
 13 58  1  1
 14 15  1  0
 14 59  1  0
 14 60  1  0
 15 38  1  0
 15 16  1  0
 15 61  1  6
 16 17  1  0
 16 62  1  0
 16 63  1  0
 17 18  1  0
 17 64  1  1
 18 19  1  0
 19 20  1  0
 19 65  1  0
 19 66  1  0
 20 21  1  0
 21 33  1  0
 21 22  1  0
 21 67  1  1
 22 23  1  0
 23 24  1  1
 23 31  1  0
 23 38  1  0
 24 30  1  0
 24 25  2  0
 25 26  1  0
 25 68  1  0
 26 27  2  0
 26 69  1  0
 27 28  1  0
 27 29  1  0
 29 30  2  0
 29 70  1  0
 30 71  1  0
 31 32  1  0
 33 32  1  6
 33 37  1  0
 33 34  1  0
 34 35  1  0
 34 72  1  0
 34 73  1  0
 35 36  1  0
 35 74  1  0
 35 75  1  0
 36 37  1  0
 37 76  1  6
 39 49  1  0
 39 40  1  6
 40 41  1  0
 40 77  1  0
 40 78  1  0
 41 42  1  0
 41 79  1  0
 41 80  1  0
 42 43  1  0
 42 47  1  0
 42 93  1  1
 43 44  1  0
 43 81  1  0
 43 82  1  0
 44 46  1  0
 44 45  1  0
 44 83  1  0
 45 46  1  0
 45 84  1  0
 45 85  1  0
 46 86  1  0
 46 87  1  0
 47 48  1  0
 47 49  1  0
 47 88  1  1
 48 89  1  0
 48 90  1  0
 49 91  1  0
 49 92  1  0
M  CHG  1  42   1
M  END
>  <i_m_ct_stereo_status>  (166) 
1

>  <s_m_source_file>  (166) 
/var/tmp/pbs.5083858.sched01/tmp41lhm64p/65tcrvjyjo.sdf

>  <i_m_source_file_index>  (166) 
5

>  <i_lp_mmshare_version>  (166) 
48012

>  <i_f3d_flags>  (166) 
0

>  <s_epik_input>  (166) 
W0NIMl0xW0NIMl1bQ0hdMVtDSDJdTihbQ0gyXVtDSDJdMilbQ0BASF0oW0NIMl0zKVtDSDJdYyhjNFtDQF0yMzUpW2NIXVtjSF1jKFtPSF0pYzRPW0NASF01W0NASF02TihbQ0gyXVtDSDJdNylbQ0BIXThbQ0BASF02W0NIMl1bQ0BASF0oW0NASF05T1tDSDJdT1tDQEhdMVtDQEBdMjc4KVtDSDJdW0NAQEhdKFtDSDJdOSlPW0NAQF0oTzEpKE9PMiljMVtjSF1bY0hdYyhDbClbY0hdW2NIXTE=

>  <s_epik_cmdline>  (166) 
J2VwaWtfcHl0aG9uJywgJy1waHQnLCAnMi4wJywgJy1waCcsICc3LjAnLCAnLXRuJywgJzgnLCAnLW1hJywgJzIwMCcsICctaW1hZScsICc8aW5maWxlLm1hZT4nLCAnLW9tYWUnLCAnPG91dGZpbGUubWFlPic=

>  <r_lp_tautomer_probability>  (166) 
1

>  <r_epik_Ionization_Penalty>  (166) 
0.516942

>  <r_epik_Ionization_Penalty_Charging>  (166) 
0.00781892

>  <r_epik_Ionization_Penalty_Neutral>  (166) 
0.509123

>  <r_epik_State_Penalty>  (166) 
0.529664

>  <r_epik_Charging_Adjusted_Penalty>  (166) 
0.537483

>  <i_epik_Tot_Q>  (166) 
1

>  <i_epik_Tot_abs_Q>  (166) 
1

>  <s_epik_Chemistry_Notes>  (166) 
This compound contains an acetal/aminal-like group ( X-CH(R)-Y where X, Y are N, S, or O) that may be acid/base labile, releasing an aldehyde.

>  <s_lp_Force_Field>  (166) 
OPLS3e

>  <r_lp_Energy>  (166) 
117.827

>  <b_lp_Chiralities_Consistent>  (166) 
1

>  <s_lp_Variant>  (166) 
52:0-2

>  <s_i_glide_gridfile>  (166) 
pfpi4k_grid

>  <i_i_glide_lignum>  (166) 
5

>  <i_i_glide_rotatable_bonds>  (166) 
5

>  <r_i_docking_score>  (166) 
-2.34785

>  <r_i_glide_ligand_efficiency>  (166) 
-0.0479153

>  <r_i_glide_ligand_efficiency_sa>  (166) 
-0.175337

>  <r_i_glide_ligand_efficiency_ln>  (166) 
-0.479955

>  <r_i_glide_gscore>  (166) 
-2.34785

>  <r_i_glide_lipo>  (166) 
-0.208115

>  <r_i_glide_hbond>  (166) 
0

>  <r_i_glide_metal>  (166) 
-0

>  <r_i_glide_rewards>  (166) 
0

>  <r_i_glide_evdw>  (166) 
-30.8798

>  <r_i_glide_ecoul>  (166) 
-3.831

>  <r_i_glide_erotb>  (166) 
0.00695412

>  <r_i_glide_esite>  (166) 
-0.0280509

>  <r_i_glide_emodel>  (166) 
-38.207

>  <r_i_glide_energy>  (166) 
-34.7108

>  <r_i_glide_einternal>  (166) 
2.72155

>  <r_i_glide_intrahb_reward>  (166) 
-0

>  <i_i_glide_confnum>  (166) 
1

>  <i_i_glide_posenum>  (166) 
29

>  <r_i_glide_eff_state_penalty>  (166) 
0

>  <ligand_id>  (166) 
52

>  <original_smiles>  (166) 
Oc1ccc2c3c1OC(C1C4CC5CC6CC5OCOC5OC(c7ccc(Cl)cc7)(OOC57CCN1C47)O6)C31CCN(CC3CC3)C(C2)C1

>  <smiles>  (166) 
[H]Oc1c([H])c([H])c2c3c1OC([H])(C1([H])N4C([H])([H])C([H])([H])C56OOC7(c8c([H])c([H])c(Cl)c([H])c8[H])OC5([H])OC([H])([H])OC5([H])C([H])([H])C([H])(O7)C([H])([H])C5([H])C([H])([H])C1([H])C46[H])C31C([H])([H])C([H])([H])[N+]([H])(C([H])([H])C3([H])C([H])([H])C3([H])[H])C([H])(C2([H])[H])C1([H])[H]

$$$$
52:1:1
     RDKit          3D

 93104  0  0  1  0  0  0  0  0999 V2000
    7.2234    0.5410    5.5613 O   0  0  0  0  0  0  0  0  0  0  0  0
    5.9265    0.9012    5.7530 C   0  0  0  0  0  0  0  0  0  0  0  0
    5.6263    1.8643    6.7537 C   0  0  0  0  0  0  0  0  0  0  0  0
    4.2903    2.2827    6.9785 C   0  0  0  0  0  0  0  0  0  0  0  0
    3.2577    1.7830    6.1668 C   0  0  0  0  0  0  0  0  0  0  0  0
    3.6382    0.8602    5.1642 C   0  0  0  0  0  0  0  0  0  0  0  0
    4.9005    0.3473    4.9617 C   0  0  0  0  0  0  0  0  0  0  0  0
    4.9461   -0.6330    3.9994 O   0  0  0  0  0  0  0  0  0  0  0  0
    3.5798   -1.0069    3.6865 C   0  0  1  0  0  0  0  0  0  0  0  0
    3.2465   -2.3248    4.4520 C   0  0  2  0  0  0  0  0  0  0  0  0
    4.2407   -3.4934    4.4156 C   0  0  1  0  0  0  0  0  0  0  0  0
    5.3142   -3.5675    5.5300 C   0  0  0  0  0  0  0  0  0  0  0  0
    6.3209   -4.7659    5.6101 C   0  0  2  0  0  0  0  0  0  0  0  0
    6.4339   -5.7134    4.3988 C   0  0  0  0  0  0  0  0  0  0  0  0
    5.7343   -7.0115    4.8091 C   0  0  1  0  0  0  0  0  0  0  0  0
    6.0093   -7.1434    6.3151 C   0  0  0  0  0  0  0  0  0  0  0  0
    6.2790   -5.7192    6.8377 C   0  0  2  0  0  0  0  0  0  0  0  0
    5.5652   -5.2843    8.0002 O   0  0  0  0  0  0  0  0  0  0  0  0
    4.2042   -5.5718    8.0990 C   0  0  0  0  0  0  0  0  0  0  0  0
    3.5077   -5.0347    7.0204 O   0  0  0  0  0  0  0  0  0  0  0  0
    2.5513   -5.8496    6.4496 C   0  0  2  0  0  0  0  0  0  0  0  0
    2.9721   -7.1762    6.2307 O   0  0  0  0  0  0  0  0  0  0  0  0
    3.3095   -7.5253    4.9189 C   0  0  1  0  0  0  0  0  0  0  0  0
    3.6401   -9.0330    4.8884 C   0  0  0  0  0  0  0  0  0  0  0  0
    3.5174   -9.8592    6.0356 C   0  0  0  0  0  0  0  0  0  0  0  0
    3.8164  -11.2370    5.9719 C   0  0  0  0  0  0  0  0  0  0  0  0
    4.2421  -11.8168    4.7605 C   0  0  0  0  0  0  0  0  0  0  0  0
    4.6187  -13.5020    4.6822 Cl  0  0  0  0  0  0  0  0  0  0  0  0
    4.3627  -11.0092    3.6142 C   0  0  0  0  0  0  0  0  0  0  0  0
    4.0599   -9.6323    3.6781 C   0  0  0  0  0  0  0  0  0  0  0  0
    2.2383   -7.3345    4.0354 O   0  0  0  0  0  0  0  0  0  0  0  0
    1.3275   -6.1896    4.4546 O   0  0  0  0  0  0  0  0  0  0  0  0
    2.0452   -5.1696    5.1446 C   0  0  1  0  0  0  0  0  0  0  0  0
    1.0056   -4.1189    5.4874 C   0  0  0  0  0  0  0  0  0  0  0  0
    0.9728   -3.2527    4.2386 C   0  0  0  0  0  0  0  0  0  0  0  0
    2.3328   -3.2073    3.7113 N   0  0  0  0  0  0  0  0  0  0  0  0
    3.0232   -4.4343    4.1514 C   0  0  1  0  0  0  0  0  0  0  0  0
    4.3888   -6.7890    4.4278 O   0  0  0  0  0  0  0  0  0  0  0  0
    2.7578    0.2769    4.1069 C   0  0  2  0  0  0  0  0  0  0  0  0
    2.6545    1.2425    2.8964 C   0  0  0  0  0  0  0  0  0  0  0  0
    2.1308    2.6308    3.2921 C   0  0  0  0  0  0  0  0  0  0  0  0
    0.8337    2.5281    4.0118 N   0  0  1  0  0  0  0  0  0  0  0  0
   -0.3202    2.3539    3.0841 C   0  0  0  0  0  0  0  0  0  0  0  0
   -1.4313    3.3369    3.3599 C   0  0  0  0  0  0  0  0  0  0  0  0
   -2.5834    2.9583    4.2526 C   0  0  0  0  0  0  0  0  0  0  0  0
   -2.8033    3.0757    2.7703 C   0  0  0  0  0  0  0  0  0  0  0  0
    0.8640    1.5348    5.1339 C   0  0  2  0  0  0  0  0  0  0  0  0
    1.7499    2.0167    6.3049 C   0  0  0  0  0  0  0  0  0  0  0  0
    1.3319    0.1454    4.6530 C   0  0  0  0  0  0  0  0  0  0  0  0
    7.3117   -0.0514    4.8314 H   0  0  0  0  0  0  0  0  0  0  0  0
    6.4206    2.2701    7.3562 H   0  0  0  0  0  0  0  0  0  0  0  0
    4.0690    2.9884    7.7765 H   0  0  0  0  0  0  0  0  0  0  0  0
    3.5307   -1.1674    2.6010 H   0  0  0  0  0  0  0  0  0  0  0  0
    2.9097   -2.1846    5.4807 H   0  0  0  0  0  0  0  0  0  0  0  0
    4.7461   -3.4235    3.4581 H   0  0  0  0  0  0  0  0  0  0  0  0
    5.9431   -2.6887    5.3806 H   0  0  0  0  0  0  0  0  0  0  0  0
    4.8989   -3.3261    6.5057 H   0  0  0  0  0  0  0  0  0  0  0  0
    7.2882   -4.2654    5.6825 H   0  0  0  0  0  0  0  0  0  0  0  0
    6.0627   -5.2993    3.4607 H   0  0  0  0  0  0  0  0  0  0  0  0
    7.4894   -5.9329    4.2336 H   0  0  0  0  0  0  0  0  0  0  0  0
    6.1280   -7.8638    4.2550 H   0  0  0  0  0  0  0  0  0  0  0  0
    5.2585   -7.7102    6.8555 H   0  0  0  0  0  0  0  0  0  0  0  0
    6.9205   -7.7280    6.4391 H   0  0  0  0  0  0  0  0  0  0  0  0
    7.3096   -5.7520    7.1965 H   0  0  0  0  0  0  0  0  0  0  0  0
    4.0529   -6.6378    8.2684 H   0  0  0  0  0  0  0  0  0  0  0  0
    3.8600   -5.0745    9.0052 H   0  0  0  0  0  0  0  0  0  0  0  0
    1.7391   -5.9409    7.1718 H   0  0  0  0  0  0  0  0  0  0  0  0
    3.1863   -9.4607    6.9822 H   0  0  0  0  0  0  0  0  0  0  0  0
    3.7015  -11.8634    6.8479 H   0  0  0  0  0  0  0  0  0  0  0  0
    4.6777  -11.4529    2.6784 H   0  0  0  0  0  0  0  0  0  0  0  0
    4.1571   -9.0311    2.7891 H   0  0  0  0  0  0  0  0  0  0  0  0
    0.0313   -4.5511    5.7013 H   0  0  0  0  0  0  0  0  0  0  0  0
    1.3099   -3.5167    6.3434 H   0  0  0  0  0  0  0  0  0  0  0  0
    0.3571   -3.7330    3.4857 H   0  0  0  0  0  0  0  0  0  0  0  0
    0.5106   -2.2898    4.4214 H   0  0  0  0  0  0  0  0  0  0  0  0
    3.2040   -5.0148    3.2413 H   0  0  0  0  0  0  0  0  0  0  0  0
    3.6253    1.3485    2.4213 H   0  0  0  0  0  0  0  0  0  0  0  0
    2.0001    0.8086    2.1321 H   0  0  0  0  0  0  0  0  0  0  0  0
    2.8558    3.1471    3.9183 H   0  0  0  0  0  0  0  0  0  0  0  0
    2.0261    3.2701    2.4185 H   0  0  0  0  0  0  0  0  0  0  0  0
   -0.0164    2.5231    2.0582 H   0  0  0  0  0  0  0  0  0  0  0  0
   -0.7151    1.3435    3.1065 H   0  0  0  0  0  0  0  0  0  0  0  0
   -1.1297    4.3843    3.3292 H   0  0  0  0  0  0  0  0  0  0  0  0
   -2.5741    1.9620    4.6851 H   0  0  0  0  0  0  0  0  0  0  0  0
   -2.9795    3.7451    4.8923 H   0  0  0  0  0  0  0  0  0  0  0  0
   -3.3877    3.9240    2.4139 H   0  0  0  0  0  0  0  0  0  0  0  0
   -2.9369    2.1587    2.1969 H   0  0  0  0  0  0  0  0  0  0  0  0
   -0.1522    1.4565    5.5154 H   0  0  0  0  0  0  0  0  0  0  0  0
    1.4565    1.4757    7.2001 H   0  0  0  0  0  0  0  0  0  0  0  0
    1.5748    3.0689    6.5211 H   0  0  0  0  0  0  0  0  0  0  0  0
    0.6648   -0.2367    3.8801 H   0  0  0  0  0  0  0  0  0  0  0  0
    1.3101   -0.5375    5.4962 H   0  0  0  0  0  0  0  0  0  0  0  0
    0.6948    3.4335    4.4389 H   0  0  0  0  0  0  0  0  0  0  0  0
  1  2  1  0
  1 50  1  0
  2  7  2  0
  2  3  1  0
  3  4  2  0
  3 51  1  0
  4  5  1  0
  4 52  1  0
  5 48  1  0
  5  6  2  0
  6 39  1  0
  6  7  1  0
  7  8  1  0
  8  9  1  0
  9 10  1  0
  9 39  1  0
  9 53  1  6
 10 36  1  0
 10 11  1  0
 10 54  1  1
 11 37  1  0
 11 12  1  0
 11 55  1  6
 12 13  1  0
 12 56  1  0
 12 57  1  0
 13 17  1  0
 13 14  1  0
 13 58  1  1
 14 15  1  0
 14 59  1  0
 14 60  1  0
 15 38  1  0
 15 16  1  0
 15 61  1  6
 16 17  1  0
 16 62  1  0
 16 63  1  0
 17 18  1  0
 17 64  1  1
 18 19  1  0
 19 20  1  0
 19 65  1  0
 19 66  1  0
 20 21  1  0
 21 33  1  0
 21 22  1  0
 21 67  1  1
 22 23  1  0
 23 24  1  1
 23 31  1  0
 23 38  1  0
 24 30  1  0
 24 25  2  0
 25 26  1  0
 25 68  1  0
 26 27  2  0
 26 69  1  0
 27 28  1  0
 27 29  1  0
 29 30  2  0
 29 70  1  0
 30 71  1  0
 31 32  1  0
 33 32  1  6
 33 37  1  0
 33 34  1  0
 34 35  1  0
 34 72  1  0
 34 73  1  0
 35 36  1  0
 35 74  1  0
 35 75  1  0
 36 37  1  0
 37 76  1  6
 39 49  1  0
 39 40  1  6
 40 41  1  0
 40 77  1  0
 40 78  1  0
 41 42  1  0
 41 79  1  0
 41 80  1  0
 42 43  1  0
 42 47  1  0
 42 93  1  1
 43 44  1  0
 43 81  1  0
 43 82  1  0
 44 46  1  0
 44 45  1  0
 44 83  1  0
 45 46  1  0
 45 84  1  0
 45 85  1  0
 46 86  1  0
 46 87  1  0
 47 48  1  0
 47 49  1  0
 47 88  1  1
 48 89  1  0
 48 90  1  0
 49 91  1  0
 49 92  1  0
M  CHG  1  42   1
M  END
>  <i_m_ct_stereo_status>  (167) 
1

>  <s_m_source_file>  (167) 
/var/tmp/pbs.5083858.sched01/tmp41lhm64p/65tcrvjyjo.sdf

>  <i_m_source_file_index>  (167) 
5

>  <i_lp_mmshare_version>  (167) 
48012

>  <i_f3d_flags>  (167) 
0

>  <s_epik_input>  (167) 
W0NIMl0xW0NIMl1bQ0hdMVtDSDJdTihbQ0gyXVtDSDJdMilbQ0BASF0oW0NIMl0zKVtDSDJdYyhjNFtDQF0yMzUpW2NIXVtjSF1jKFtPSF0pYzRPW0NASF01W0NASF02TihbQ0gyXVtDSDJdNylbQ0BIXThbQ0BASF02W0NIMl1bQ0BASF0oW0NASF05T1tDSDJdT1tDQEhdMVtDQEBdMjc4KVtDSDJdW0NAQEhdKFtDSDJdOSlPW0NAQF0oTzEpKE9PMiljMVtjSF1bY0hdYyhDbClbY0hdW2NIXTE=

>  <s_epik_cmdline>  (167) 
J2VwaWtfcHl0aG9uJywgJy1waHQnLCAnMi4wJywgJy1waCcsICc3LjAnLCAnLXRuJywgJzgnLCAnLW1hJywgJzIwMCcsICctaW1hZScsICc8aW5maWxlLm1hZT4nLCAnLW9tYWUnLCAnPG91dGZpbGUubWFlPic=

>  <r_lp_tautomer_probability>  (167) 
1

>  <r_epik_Ionization_Penalty>  (167) 
0.516942

>  <r_epik_Ionization_Penalty_Charging>  (167) 
0.00781892

>  <r_epik_Ionization_Penalty_Neutral>  (167) 
0.509123

>  <r_epik_State_Penalty>  (167) 
0.529664

>  <r_epik_Charging_Adjusted_Penalty>  (167) 
0.537483

>  <i_epik_Tot_Q>  (167) 
1

>  <i_epik_Tot_abs_Q>  (167) 
1

>  <s_epik_Chemistry_Notes>  (167) 
This compound contains an acetal/aminal-like group ( X-CH(R)-Y where X, Y are N, S, or O) that may be acid/base labile, releasing an aldehyde.

>  <s_lp_Force_Field>  (167) 
OPLS3e

>  <r_lp_Energy>  (167) 
117.827

>  <b_lp_Chiralities_Consistent>  (167) 
1

>  <s_lp_Variant>  (167) 
52:0-2

>  <s_i_glide_gridfile>  (167) 
pfpi4k_grid

>  <i_i_glide_lignum>  (167) 
5

>  <i_i_glide_rotatable_bonds>  (167) 
5

>  <r_i_docking_score>  (167) 
-2.24029

>  <r_i_glide_ligand_efficiency>  (167) 
-0.0457202

>  <r_i_glide_ligand_efficiency_sa>  (167) 
-0.167304

>  <r_i_glide_ligand_efficiency_ln>  (167) 
-0.457967

>  <r_i_glide_gscore>  (167) 
-2.24029

>  <r_i_glide_lipo>  (167) 
-0.20884

>  <r_i_glide_hbond>  (167) 
0

>  <r_i_glide_metal>  (167) 
-0

>  <r_i_glide_rewards>  (167) 
0

>  <r_i_glide_evdw>  (167) 
-31.1593

>  <r_i_glide_ecoul>  (167) 
-3.00642

>  <r_i_glide_erotb>  (167) 
0.00695412

>  <r_i_glide_esite>  (167) 
-0.0294779

>  <r_i_glide_emodel>  (167) 
-37.3909

>  <r_i_glide_energy>  (167) 
-34.1657

>  <r_i_glide_einternal>  (167) 
2.70436

>  <r_i_glide_intrahb_reward>  (167) 
-0

>  <i_i_glide_confnum>  (167) 
1

>  <i_i_glide_posenum>  (167) 
15

>  <r_i_glide_eff_state_penalty>  (167) 
0

>  <ligand_id>  (167) 
52

>  <original_smiles>  (167) 
Oc1ccc2c3c1OC(C1C4CC5CC6CC5OCOC5OC(c7ccc(Cl)cc7)(OOC57CCN1C47)O6)C31CCN(CC3CC3)C(C2)C1

>  <smiles>  (167) 
[H]Oc1c([H])c([H])c2c3c1OC([H])(C1([H])N4C([H])([H])C([H])([H])C56OOC7(c8c([H])c([H])c(Cl)c([H])c8[H])OC5([H])OC([H])([H])OC5([H])C([H])([H])C([H])(O7)C([H])([H])C5([H])C([H])([H])C1([H])C46[H])C31C([H])([H])C([H])([H])[N+]([H])(C([H])([H])C3([H])C([H])([H])C3([H])[H])C([H])(C2([H])[H])C1([H])[H]

$$$$
52:1:2
     RDKit          3D

 93104  0  0  1  0  0  0  0  0999 V2000
    4.8854    2.4158    5.9875 O   0  0  0  0  0  0  0  0  0  0  0  0
    3.5343    2.5364    6.0846 C   0  0  0  0  0  0  0  0  0  0  0  0
    2.9853    3.3864    7.1072 C   0  0  0  0  0  0  0  0  0  0  0  0
    1.5878    3.4970    7.2876 C   0  0  0  0  0  0  0  0  0  0  0  0
    0.7260    2.8323    6.4012 C   0  0  0  0  0  0  0  0  0  0  0  0
    1.3439    2.0752    5.3699 C   0  0  0  0  0  0  0  0  0  0  0  0
    2.6856    1.8373    5.2232 C   0  0  0  0  0  0  0  0  0  0  0  0
    2.9673    0.9133    4.2268 O   0  0  0  0  0  0  0  0  0  0  0  0
    1.7216    0.2979    3.8259 C   0  0  1  0  0  0  0  0  0  0  0  0
    1.6611   -1.1007    4.5292 C   0  0  2  0  0  0  0  0  0  0  0  0
    2.6984   -2.1726    4.1496 C   0  0  1  0  0  0  0  0  0  0  0  0
    4.0236   -2.2425    4.9405 C   0  0  0  0  0  0  0  0  0  0  0  0
    5.0770   -3.3606    4.6476 C   0  0  2  0  0  0  0  0  0  0  0  0
    4.9496   -4.1873    3.3537 C   0  0  0  0  0  0  0  0  0  0  0  0
    4.4649   -5.5686    3.7985 C   0  0  1  0  0  0  0  0  0  0  0  0
    5.1182   -5.8010    5.1688 C   0  0  0  0  0  0  0  0  0  0  0  0
    5.4226   -4.4063    5.7482 C   0  0  2  0  0  0  0  0  0  0  0  0
    5.0044   -4.1322    7.0899 O   0  0  0  0  0  0  0  0  0  0  0  0
    3.7367   -4.5403    7.4961 C   0  0  0  0  0  0  0  0  0  0  0  0
    2.7565   -3.9844    6.6817 O   0  0  0  0  0  0  0  0  0  0  0  0
    1.7444   -4.8341    6.2882 C   0  0  2  0  0  0  0  0  0  0  0  0
    2.1867   -6.0906    5.8452 O   0  0  0  0  0  0  0  0  0  0  0  0
    2.1895   -6.3040    4.4594 C   0  0  1  0  0  0  0  0  0  0  0  0
    2.5911   -7.7729    4.1983 C   0  0  0  0  0  0  0  0  0  0  0  0
    2.6875   -8.7242    5.2448 C   0  0  0  0  0  0  0  0  0  0  0  0
    3.0412  -10.0644    4.9717 C   0  0  0  0  0  0  0  0  0  0  0  0
    3.3134  -10.4717    3.6504 C   0  0  0  0  0  0  0  0  0  0  0  0
    3.7888  -12.1074    3.3341 Cl  0  0  0  0  0  0  0  0  0  0  0  0
    3.2091   -9.5391    2.6000 C   0  0  0  0  0  0  0  0  0  0  0  0
    2.8454   -8.2022    2.8684 C   0  0  0  0  0  0  0  0  0  0  0  0
    0.9184   -6.1400    3.8910 O   0  0  0  0  0  0  0  0  0  0  0  0
    0.0837   -5.1145    4.6300 O   0  0  0  0  0  0  0  0  0  0  0  0
    0.8912   -4.1013    5.2141 C   0  0  1  0  0  0  0  0  0  0  0  0
   -0.1052   -3.1899    5.9087 C   0  0  0  0  0  0  0  0  0  0  0  0
   -0.5134   -2.2436    4.8131 C   0  0  0  0  0  0  0  0  0  0  0  0
    0.6576   -2.0123    3.9666 N   0  0  0  0  0  0  0  0  0  0  0  0
    1.5327   -3.2038    4.0899 C   0  0  1  0  0  0  0  0  0  0  0  0
    3.0543   -5.4412    3.7851 O   0  0  0  0  0  0  0  0  0  0  0  0
    0.6476    1.3759    4.2501 C   0  0  2  0  0  0  0  0  0  0  0  0
    0.3959    2.3424    3.0825 C   0  0  0  0  0  0  0  0  0  0  0  0
   -0.4461    3.5485    3.5316 C   0  0  0  0  0  0  0  0  0  0  0  0
   -1.7212    3.1560    4.1710 N   0  0  1  0  0  0  0  0  0  0  0  0
   -2.7619    2.7907    3.1675 C   0  0  0  0  0  0  0  0  0  0  0  0
   -3.3924    3.9914    2.5138 C   0  0  0  0  0  0  0  0  0  0  0  0
   -4.8914    4.1902    2.4890 C   0  0  0  0  0  0  0  0  0  0  0  0
   -4.2404    3.7304    1.2956 C   0  0  0  0  0  0  0  0  0  0  0  0
   -1.5193    2.1444    5.2447 C   0  0  2  0  0  0  0  0  0  0  0  0
   -0.7955    2.7359    6.4780 C   0  0  0  0  0  0  0  0  0  0  0  0
   -0.7217    0.9485    4.7423 C   0  0  0  0  0  0  0  0  0  0  0  0
    5.1204    1.8286    5.2818 H   0  0  0  0  0  0  0  0  0  0  0  0
    3.6452    3.9187    7.7663 H   0  0  0  0  0  0  0  0  0  0  0  0
    1.1754    4.0967    8.1005 H   0  0  0  0  0  0  0  0  0  0  0  0
    1.7671    0.1810    2.7320 H   0  0  0  0  0  0  0  0  0  0  0  0
    1.5750   -1.0619    5.6167 H   0  0  0  0  0  0  0  0  0  0  0  0
    2.9363   -1.9891    3.1054 H   0  0  0  0  0  0  0  0  0  0  0  0
    4.5373   -1.3054    4.7266 H   0  0  0  0  0  0  0  0  0  0  0  0
    3.8442   -2.1225    6.0018 H   0  0  0  0  0  0  0  0  0  0  0  0
    5.9858   -2.7775    4.5337 H   0  0  0  0  0  0  0  0  0  0  0  0
    4.3253   -3.7338    2.5817 H   0  0  0  0  0  0  0  0  0  0  0  0
    5.9410   -4.3018    2.9113 H   0  0  0  0  0  0  0  0  0  0  0  0
    4.7596   -6.3296    3.0794 H   0  0  0  0  0  0  0  0  0  0  0  0
    4.5586   -6.4686    5.8144 H   0  0  0  0  0  0  0  0  0  0  0  0
    6.0608   -6.3237    5.0093 H   0  0  0  0  0  0  0  0  0  0  0  0
    6.5130   -4.3778    5.8317 H   0  0  0  0  0  0  0  0  0  0  0  0
    3.7000   -5.6252    7.5944 H   0  0  0  0  0  0  0  0  0  0  0  0
    3.6109   -4.1465    8.5037 H   0  0  0  0  0  0  0  0  0  0  0  0
    1.1371   -5.0455    7.1743 H   0  0  0  0  0  0  0  0  0  0  0  0
    2.4777   -8.4509    6.2714 H   0  0  0  0  0  0  0  0  0  0  0  0
    3.1068  -10.7855    5.7726 H   0  0  0  0  0  0  0  0  0  0  0  0
    3.4193   -9.8582    1.5880 H   0  0  0  0  0  0  0  0  0  0  0  0
    2.7725   -7.4994    2.0513 H   0  0  0  0  0  0  0  0  0  0  0  0
   -0.9628   -3.7227    6.3255 H   0  0  0  0  0  0  0  0  0  0  0  0
    0.3508   -2.6040    6.7081 H   0  0  0  0  0  0  0  0  0  0  0  0
   -1.2299   -2.6702    4.1492 H   0  0  0  0  0  0  0  0  0  0  0  0
   -1.1233   -1.4690    5.2179 H   0  0  0  0  0  0  0  0  0  0  0  0
    1.4952   -3.6767    3.1030 H   0  0  0  0  0  0  0  0  0  0  0  0
    1.3298    2.6936    2.6569 H   0  0  0  0  0  0  0  0  0  0  0  0
   -0.0986    1.8122    2.2730 H   0  0  0  0  0  0  0  0  0  0  0  0
    0.1264    4.1923    4.1940 H   0  0  0  0  0  0  0  0  0  0  0  0
   -0.6981    4.1861    2.7072 H   0  0  0  0  0  0  0  0  0  0  0  0
   -2.3296    2.1445    2.4050 H   0  0  0  0  0  0  0  0  0  0  0  0
   -3.5278    2.1905    3.6477 H   0  0  0  0  0  0  0  0  0  0  0  0
   -2.8192    4.8971    2.4829 H   0  0  0  0  0  0  0  0  0  0  0  0
   -5.4662    3.3757    2.8493 H   0  0  0  0  0  0  0  0  0  0  0  0
   -5.3146    5.2114    2.5174 H   0  0  0  0  0  0  0  0  0  0  0  0
   -4.2983    4.4983    0.5654 H   0  0  0  0  0  0  0  0  0  0  0  0
   -4.3929    2.7080    0.9619 H   0  0  0  0  0  0  0  0  0  0  0  0
   -2.5019    1.8100    5.5774 H   0  0  0  0  0  0  0  0  0  0  0  0
   -1.0179    2.0935    7.3299 H   0  0  0  0  0  0  0  0  0  0  0  0
   -1.2142    3.7043    6.7365 H   0  0  0  0  0  0  0  0  0  0  0  0
   -1.2741    0.3890    3.9912 H   0  0  0  0  0  0  0  0  0  0  0  0
   -0.5630    0.3974    5.6494 H   0  0  0  0  0  0  0  0  0  0  0  0
   -2.0872    3.9649    4.6543 H   0  0  0  0  0  0  0  0  0  0  0  0
  1  2  1  0
  1 50  1  0
  2  7  2  0
  2  3  1  0
  3  4  2  0
  3 51  1  0
  4  5  1  0
  4 52  1  0
  5 48  1  0
  5  6  2  0
  6 39  1  0
  6  7  1  0
  7  8  1  0
  8  9  1  0
  9 10  1  0
  9 39  1  0
  9 53  1  6
 10 36  1  0
 10 11  1  0
 10 54  1  1
 11 37  1  0
 11 12  1  0
 11 55  1  6
 12 13  1  0
 12 56  1  0
 12 57  1  0
 13 17  1  0
 13 14  1  0
 13 58  1  6
 14 15  1  0
 14 59  1  0
 14 60  1  0
 15 38  1  0
 15 16  1  0
 15 61  1  6
 16 17  1  0
 16 62  1  0
 16 63  1  0
 17 18  1  0
 17 64  1  1
 18 19  1  0
 19 20  1  0
 19 65  1  0
 19 66  1  0
 20 21  1  0
 21 33  1  0
 21 22  1  0
 21 67  1  1
 22 23  1  0
 23 24  1  1
 23 31  1  0
 23 38  1  0
 24 30  1  0
 24 25  2  0
 25 26  1  0
 25 68  1  0
 26 27  2  0
 26 69  1  0
 27 28  1  0
 27 29  1  0
 29 30  2  0
 29 70  1  0
 30 71  1  0
 31 32  1  0
 33 32  1  6
 33 37  1  0
 33 34  1  0
 34 35  1  0
 34 72  1  0
 34 73  1  0
 35 36  1  0
 35 74  1  0
 35 75  1  0
 36 37  1  0
 37 76  1  6
 39 49  1  0
 39 40  1  6
 40 41  1  0
 40 77  1  0
 40 78  1  0
 41 42  1  0
 41 79  1  0
 41 80  1  0
 42 43  1  0
 42 47  1  0
 42 93  1  1
 43 44  1  0
 43 81  1  0
 43 82  1  0
 44 46  1  0
 44 45  1  0
 44 83  1  0
 45 46  1  0
 45 84  1  0
 45 85  1  0
 46 86  1  0
 46 87  1  0
 47 48  1  0
 47 49  1  0
 47 88  1  1
 48 89  1  0
 48 90  1  0
 49 91  1  0
 49 92  1  0
M  CHG  1  42   1
M  END
>  <i_m_ct_stereo_status>  (168) 
1

>  <s_m_source_file>  (168) 
/var/tmp/pbs.5083858.sched01/tmp41lhm64p/65tcrvjyjo.sdf

>  <i_m_source_file_index>  (168) 
5

>  <i_lp_mmshare_version>  (168) 
48012

>  <i_f3d_flags>  (168) 
0

>  <s_epik_input>  (168) 
W0NIMl0xW0NIMl1bQ0hdMVtDSDJdTihbQ0gyXVtDSDJdMilbQ0BASF0oW0NIMl0zKVtDSDJdYyhjNFtDQF0yMzUpW2NIXVtjSF1jKFtPSF0pYzRPW0NASF01W0NASF02TihbQ0gyXVtDSDJdNylbQ0BIXThbQ0BASF02W0NIMl1bQ0BASF0oW0NASF05T1tDSDJdT1tDQEhdMVtDQEBdMjc4KVtDSDJdW0NAQEhdKFtDSDJdOSlPW0NAQF0oTzEpKE9PMiljMVtjSF1bY0hdYyhDbClbY0hdW2NIXTE=

>  <s_epik_cmdline>  (168) 
J2VwaWtfcHl0aG9uJywgJy1waHQnLCAnMi4wJywgJy1waCcsICc3LjAnLCAnLXRuJywgJzgnLCAnLW1hJywgJzIwMCcsICctaW1hZScsICc8aW5maWxlLm1hZT4nLCAnLW9tYWUnLCAnPG91dGZpbGUubWFlPic=

>  <r_lp_tautomer_probability>  (168) 
1

>  <r_epik_Ionization_Penalty>  (168) 
0.516942

>  <r_epik_Ionization_Penalty_Charging>  (168) 
0.00781892

>  <r_epik_Ionization_Penalty_Neutral>  (168) 
0.509123

>  <r_epik_State_Penalty>  (168) 
0.529664

>  <r_epik_Charging_Adjusted_Penalty>  (168) 
0.537483

>  <i_epik_Tot_Q>  (168) 
1

>  <i_epik_Tot_abs_Q>  (168) 
1

>  <s_epik_Chemistry_Notes>  (168) 
This compound contains an acetal/aminal-like group ( X-CH(R)-Y where X, Y are N, S, or O) that may be acid/base labile, releasing an aldehyde.

>  <s_lp_Force_Field>  (168) 
OPLS3e

>  <r_lp_Energy>  (168) 
117.827

>  <b_lp_Chiralities_Consistent>  (168) 
1

>  <s_lp_Variant>  (168) 
52:0-2

>  <s_i_glide_gridfile>  (168) 
pfpi4k_grid

>  <i_i_glide_lignum>  (168) 
5

>  <i_i_glide_rotatable_bonds>  (168) 
5

>  <r_i_docking_score>  (168) 
-0.579822

>  <r_i_glide_ligand_efficiency>  (168) 
-0.0118331

>  <r_i_glide_ligand_efficiency_sa>  (168) 
-0.0433009

>  <r_i_glide_ligand_efficiency_ln>  (168) 
-0.118529

>  <r_i_glide_gscore>  (168) 
-0.579822

>  <r_i_glide_lipo>  (168) 
-0.253927

>  <r_i_glide_hbond>  (168) 
0

>  <r_i_glide_metal>  (168) 
-0

>  <r_i_glide_rewards>  (168) 
0

>  <r_i_glide_evdw>  (168) 
-8.35981

>  <r_i_glide_ecoul>  (168) 
0.826907

>  <r_i_glide_erotb>  (168) 
0.00695412

>  <r_i_glide_esite>  (168) 
-0.038895

>  <r_i_glide_emodel>  (168) 
-5.81508

>  <r_i_glide_energy>  (168) 
-7.5329

>  <r_i_glide_einternal>  (168) 
1.74218

>  <r_i_glide_intrahb_reward>  (168) 
-0

>  <i_i_glide_confnum>  (168) 
1

>  <i_i_glide_posenum>  (168) 
1

>  <r_i_glide_eff_state_penalty>  (168) 
0

>  <ligand_id>  (168) 
52

>  <original_smiles>  (168) 
Oc1ccc2c3c1OC(C1C4CC5CC6CC5OCOC5OC(c7ccc(Cl)cc7)(OOC57CCN1C47)O6)C31CCN(CC3CC3)C(C2)C1

>  <smiles>  (168) 
[H]Oc1c([H])c([H])c2c3c1OC([H])(C1([H])N4C([H])([H])C([H])([H])C56OOC7(c8c([H])c([H])c(Cl)c([H])c8[H])OC5([H])OC([H])([H])OC5([H])C([H])([H])C([H])(O7)C([H])([H])C5([H])C([H])([H])C1([H])C46[H])C31C([H])([H])C([H])([H])[N+]([H])(C([H])([H])C3([H])C([H])([H])C3([H])[H])C([H])(C2([H])[H])C1([H])[H]

$$$$
52:2:0
     RDKit          3D

 93104  0  0  1  0  0  0  0  0999 V2000
    6.9715    1.7563    6.2998 O   0  0  0  0  0  0  0  0  0  0  0  0
    5.7637    2.3287    6.4941 C   0  0  0  0  0  0  0  0  0  0  0  0
    5.5877    3.2965    7.5099 C   0  0  0  0  0  0  0  0  0  0  0  0
    4.3305    3.9075    7.7778 C   0  0  0  0  0  0  0  0  0  0  0  0
    3.2474    3.5969    6.9279 C   0  0  0  0  0  0  0  0  0  0  0  0
    3.5117    2.6809    5.9011 C   0  0  0  0  0  0  0  0  0  0  0  0
    4.6790    1.9596    5.6803 C   0  0  0  0  0  0  0  0  0  0  0  0
    4.5444    1.0176    4.6982 O   0  0  0  0  0  0  0  0  0  0  0  0
    3.1524    0.8981    4.3456 C   0  0  1  0  0  0  0  0  0  0  0  0
    2.6311   -0.3975    5.0580 C   0  0  2  0  0  0  0  0  0  0  0  0
    3.2496   -1.7581    4.7053 C   0  0  1  0  0  0  0  0  0  0  0  0
    4.4503   -2.2897    5.5270 C   0  0  0  0  0  0  0  0  0  0  0  0
    5.1044   -3.6835    5.2157 C   0  0  2  0  0  0  0  0  0  0  0  0
    4.7374   -4.3960    3.8954 C   0  0  0  0  0  0  0  0  0  0  0  0
    3.8037   -5.5516    4.2792 C   0  0  1  0  0  0  0  0  0  0  0  0
    4.3158   -6.0206    5.6516 C   0  0  0  0  0  0  0  0  0  0  0  0
    5.0464   -4.8183    6.2830 C   0  0  2  0  0  0  0  0  0  0  0  0
    4.7039   -4.4600    7.6279 O   0  0  0  0  0  0  0  0  0  0  0  0
    3.3611   -4.4378    7.9979 C   0  0  0  0  0  0  0  0  0  0  0  0
    2.6466   -3.5712    7.1782 O   0  0  0  0  0  0  0  0  0  0  0  0
    1.4236   -4.0184    6.7408 C   0  0  2  0  0  0  0  0  0  0  0  0
    1.4285   -5.3417    6.2665 O   0  0  0  0  0  0  0  0  0  0  0  0
    1.3995   -5.5159    4.8783 C   0  0  1  0  0  0  0  0  0  0  0  0
    1.2940   -7.0286    4.5641 C   0  0  0  0  0  0  0  0  0  0  0  0
    1.2846   -8.0086    5.5880 C   0  0  0  0  0  0  0  0  0  0  0  0
    1.1927   -9.3753    5.2658 C   0  0  0  0  0  0  0  0  0  0  0  0
    1.1151   -9.7761    3.9204 C   0  0  0  0  0  0  0  0  0  0  0  0
    1.0460  -11.4559    3.5220 Cl  0  0  0  0  0  0  0  0  0  0  0  0
    1.1185   -8.8117    2.8980 C   0  0  0  0  0  0  0  0  0  0  0  0
    1.2116   -7.4461    3.2173 C   0  0  0  0  0  0  0  0  0  0  0  0
    0.2603   -4.9162    4.3170 O   0  0  0  0  0  0  0  0  0  0  0  0
   -0.1875   -3.6811    5.0495 O   0  0  0  0  0  0  0  0  0  0  0  0
    0.8854   -3.0148    5.6922 C   0  0  1  0  0  0  0  0  0  0  0  0
    0.2173   -1.8482    6.4095 C   0  0  0  0  0  0  0  0  0  0  0  0
    0.0957   -0.7492    5.3571 C   0  0  0  0  0  0  0  0  0  0  0  0
    1.3400   -0.9227    4.5132 N   0  0  2  0  0  0  0  0  0  0  0  0
    1.8154   -2.3431    4.6029 C   0  0  1  0  0  0  0  0  0  0  0  0
    2.5166   -4.9581    4.2517 O   0  0  0  0  0  0  0  0  0  0  0  0
    2.5493    2.2694    4.8134 C   0  0  2  0  0  0  0  0  0  0  0  0
    2.6148    3.2825    3.6395 C   0  0  0  0  0  0  0  0  0  0  0  0
    2.3236    4.7133    4.0774 C   0  0  0  0  0  0  0  0  0  0  0  0
    1.0050    4.7790    4.7879 N   0  0  1  0  0  0  0  0  0  0  0  0
   -0.1772    4.9027    3.8525 C   0  0  0  0  0  0  0  0  0  0  0  0
   -0.9627    3.6084    3.6694 C   0  0  0  0  0  0  0  0  0  0  0  0
   -2.3952    3.6168    3.1890 C   0  0  0  0  0  0  0  0  0  0  0  0
   -2.0994    3.3431    4.6347 C   0  0  0  0  0  0  0  0  0  0  0  0
    0.8677    3.7353    5.8951 C   0  0  2  0  0  0  0  0  0  0  0  0
    1.7967    4.0520    7.0962 C   0  0  0  0  0  0  0  0  0  0  0  0
    1.1235    2.2671    5.4040 C   0  0  0  0  0  0  0  0  0  0  0  0
    6.4092    3.5761    8.1405 H   0  0  0  0  0  0  0  0  0  0  0  0
    4.1778    4.6099    8.6089 H   0  0  0  0  0  0  0  0  0  0  0  0
    3.0910    0.7706    3.2496 H   0  0  0  0  0  0  0  0  0  0  0  0
    2.5834   -0.2999    6.1457 H   0  0  0  0  0  0  0  0  0  0  0  0
    3.5675   -1.6625    3.6769 H   0  0  0  0  0  0  0  0  0  0  0  0
    5.2516   -1.5724    5.3562 H   0  0  0  0  0  0  0  0  0  0  0  0
    4.3013   -2.1441    6.5916 H   0  0  0  0  0  0  0  0  0  0  0  0
    6.1676   -3.4453    5.1344 H   0  0  0  0  0  0  0  0  0  0  0  0
    4.3175   -3.7422    3.1289 H   0  0  0  0  0  0  0  0  0  0  0  0
    5.6466   -4.8180    3.4647 H   0  0  0  0  0  0  0  0  0  0  0  0
    3.8429   -6.3536    3.5425 H   0  0  0  0  0  0  0  0  0  0  0  0
    3.5529   -6.4788    6.2710 H   0  0  0  0  0  0  0  0  0  0  0  0
    5.0361   -6.8216    5.4949 H   0  0  0  0  0  0  0  0  0  0  0  0
    6.0816   -5.1551    6.3949 H   0  0  0  0  0  0  0  0  0  0  0  0
    2.9692   -5.4524    8.0609 H   0  0  0  0  0  0  0  0  0  0  0  0
    3.3405   -4.0484    9.0147 H   0  0  0  0  0  0  0  0  0  0  0  0
    0.7607   -4.0536    7.6061 H   0  0  0  0  0  0  0  0  0  0  0  0
    1.3436   -7.7319    6.6313 H   0  0  0  0  0  0  0  0  0  0  0  0
    1.1873  -10.1268    6.0447 H   0  0  0  0  0  0  0  0  0  0  0  0
    1.0557   -9.1373    1.8681 H   0  0  0  0  0  0  0  0  0  0  0  0
    1.2172   -6.7189    2.4170 H   0  0  0  0  0  0  0  0  0  0  0  0
   -0.7507   -2.0887    6.8263 H   0  0  0  0  0  0  0  0  0  0  0  0
    0.8427   -1.4761    7.2148 H   0  0  0  0  0  0  0  0  0  0  0  0
   -0.7338   -0.9894    4.6752 H   0  0  0  0  0  0  0  0  0  0  0  0
   -0.0780    0.2014    5.8120 H   0  0  0  0  0  0  0  0  0  0  0  0
    1.6506   -2.7502    3.6023 H   0  0  0  0  0  0  0  0  0  0  0  0
    3.5952    3.2873    3.1851 H   0  0  0  0  0  0  0  0  0  0  0  0
    1.9262    3.0023    2.8477 H   0  0  0  0  0  0  0  0  0  0  0  0
    3.0988    5.0878    4.7376 H   0  0  0  0  0  0  0  0  0  0  0  0
    2.3242    5.4040    3.2445 H   0  0  0  0  0  0  0  0  0  0  0  0
   -0.8066    5.7060    4.2576 H   0  0  0  0  0  0  0  0  0  0  0  0
    0.1649    5.2550    2.8845 H   0  0  0  0  0  0  0  0  0  0  0  0
   -0.3866    2.8348    3.1786 H   0  0  0  0  0  0  0  0  0  0  0  0
   -2.8023    4.5867    2.8588 H   0  0  0  0  0  0  0  0  0  0  0  0
   -2.6469    2.7583    2.5714 H   0  0  0  0  0  0  0  0  0  0  0  0
   -2.2027    2.3292    5.0064 H   0  0  0  0  0  0  0  0  0  0  0  0
   -2.3623    4.1201    5.3582 H   0  0  0  0  0  0  0  0  0  0  0  0
   -0.1379    3.8295    6.2785 H   0  0  0  0  0  0  0  0  0  0  0  0
    1.3876    3.5002    7.9431 H   0  0  0  0  0  0  0  0  0  0  0  0
    1.7556    5.1082    7.3789 H   0  0  0  0  0  0  0  0  0  0  0  0
    0.4468    1.9274    4.6669 H   0  0  0  0  0  0  0  0  0  0  0  0
    1.1381    1.6709    6.3347 H   0  0  0  0  0  0  0  0  0  0  0  0
    1.0337    5.6785    5.2735 H   0  0  0  0  0  0  0  0  0  0  0  0
    1.2391   -0.6071    3.5369 H   0  0  0  0  0  0  0  0  0  0  0  0
  1  2  1  0
  2  7  2  0
  2  3  1  0
  3  4  2  0
  3 50  1  0
  4  5  1  0
  4 51  1  0
  5 48  1  0
  5  6  2  0
  6 39  1  0
  6  7  1  0
  7  8  1  0
  8  9  1  0
  9 10  1  0
  9 39  1  0
  9 52  1  6
 10 36  1  0
 10 11  1  0
 10 53  1  1
 11 37  1  0
 11 12  1  0
 11 54  1  6
 12 13  1  0
 12 55  1  0
 12 56  1  0
 13 17  1  0
 13 14  1  0
 13 57  1  6
 14 15  1  0
 14 58  1  0
 14 59  1  0
 15 38  1  0
 15 16  1  0
 15 60  1  6
 16 17  1  0
 16 61  1  0
 16 62  1  0
 17 18  1  0
 17 63  1  1
 18 19  1  0
 19 20  1  0
 19 64  1  0
 19 65  1  0
 20 21  1  0
 21 33  1  0
 21 22  1  0
 21 66  1  1
 22 23  1  0
 23 24  1  1
 23 31  1  0
 23 38  1  0
 24 30  1  0
 24 25  2  0
 25 26  1  0
 25 67  1  0
 26 27  2  0
 26 68  1  0
 27 28  1  0
 27 29  1  0
 29 30  2  0
 29 69  1  0
 30 70  1  0
 31 32  1  0
 33 32  1  6
 33 37  1  0
 33 34  1  0
 34 35  1  0
 34 71  1  0
 34 72  1  0
 35 36  1  0
 35 73  1  0
 35 74  1  0
 36 37  1  0
 36 93  1  6
 37 75  1  6
 39 49  1  0
 39 40  1  6
 40 41  1  0
 40 76  1  0
 40 77  1  0
 41 42  1  0
 41 78  1  0
 41 79  1  0
 42 43  1  0
 42 47  1  0
 42 92  1  1
 43 44  1  0
 43 80  1  0
 43 81  1  0
 44 46  1  0
 44 45  1  0
 44 82  1  0
 45 46  1  0
 45 83  1  0
 45 84  1  0
 46 85  1  0
 46 86  1  0
 47 48  1  0
 47 49  1  0
 47 87  1  1
 48 88  1  0
 48 89  1  0
 49 90  1  0
 49 91  1  0
M  CHG  3   1  -1  36   1  42   1
M  END
>  <i_m_ct_stereo_status>  (169) 
1

>  <s_m_source_file>  (169) 
/var/tmp/pbs.5083858.sched01/tmpvnyp8v7t/70kybzyij0.sdf

>  <i_m_source_file_index>  (169) 
1

>  <i_lp_mmshare_version>  (169) 
48012

>  <i_f3d_flags>  (169) 
0

>  <s_epik_input>  (169) 
W0NIMl0xW0NIMl1bQ0hdMVtDSDJdTihbQ0gyXVtDSDJdMilbQ0BASF0oW0NIMl0zKVtDSDJdYyhjNFtDQF0yMzUpW2NIXVtjSF1jKFtPSF0pYzRPW0NASF01W0NASF02TihbQ0gyXVtDSDJdNylbQ0BIXThbQ0BASF02W0NIMl1bQ0BASF0oW0NASF05T1tDSDJdT1tDQEhdMVtDQEBdMjc4KVtDSDJdW0NAQEhdKFtDSDJdOSlPW0NAQF0oTzEpKE9PMiljMVtjSF1bY0hdYyhDbClbY0hdW2NIXTE=

>  <s_epik_cmdline>  (169) 
J2VwaWtfcHl0aG9uJywgJy1waHQnLCAnMi4wJywgJy1waCcsICc3LjAnLCAnLXRuJywgJzgnLCAnLW1hJywgJzIwMCcsICctaW1hZScsICc8aW5maWxlLm1hZT4nLCAnLW9tYWUnLCAnPG91dGZpbGUubWFlPic=

>  <r_epik_Ionization_Penalty>  (169) 
2.28833

>  <r_epik_Ionization_Penalty_Charging>  (169) 
2.28833

>  <r_epik_Ionization_Penalty_Neutral>  (169) 
3.33106e-13

>  <r_epik_State_Penalty>  (169) 
2.36242

>  <r_epik_Charging_Adjusted_Penalty>  (169) 
4.65075

>  <i_epik_Tot_Q>  (169) 
1

>  <i_epik_Tot_abs_Q>  (169) 
3

>  <s_epik_Chemistry_Notes>  (169) 
This compound contains an acetal/aminal-like group ( X-CH(R)-Y where X, Y are N, S, or O) that may be acid/base labile, releasing an aldehyde.

>  <s_lp_Force_Field>  (169) 
OPLS3e

>  <r_lp_Energy>  (169) 
115.762

>  <b_lp_Chiralities_Consistent>  (169) 
1

>  <s_lp_Variant>  (169) 
52:0-3

>  <s_i_glide_gridfile>  (169) 
pfpi4k_grid

>  <i_i_glide_lignum>  (169) 
1

>  <i_i_glide_rotatable_bonds>  (169) 
4

>  <r_i_docking_score>  (169) 
-2.13867

>  <r_i_glide_ligand_efficiency>  (169) 
-0.0436463

>  <r_i_glide_ligand_efficiency_sa>  (169) 
-0.159715

>  <r_i_glide_ligand_efficiency_ln>  (169) 
-0.437192

>  <r_i_glide_gscore>  (169) 
-2.13867

>  <r_i_glide_lipo>  (169) 
-0.253157

>  <r_i_glide_hbond>  (169) 
0

>  <r_i_glide_metal>  (169) 
-0

>  <r_i_glide_rewards>  (169) 
0

>  <r_i_glide_evdw>  (169) 
-32.1339

>  <r_i_glide_ecoul>  (169) 
-1.74544

>  <r_i_glide_erotb>  (169) 
0.00695412

>  <r_i_glide_esite>  (169) 
-0.0239536

>  <r_i_glide_emodel>  (169) 
-30.7676

>  <r_i_glide_energy>  (169) 
-33.8793

>  <r_i_glide_einternal>  (169) 
11.3084

>  <r_i_glide_intrahb_reward>  (169) 
-0

>  <i_i_glide_confnum>  (169) 
1

>  <i_i_glide_posenum>  (169) 
34

>  <r_i_glide_eff_state_penalty>  (169) 
0

>  <ligand_id>  (169) 
52

>  <original_smiles>  (169) 
Oc1ccc2c3c1OC(C1C4CC5CC6CC5OCOC5OC(c7ccc(Cl)cc7)(OOC57CCN1C47)O6)C31CCN(CC3CC3)C(C2)C1

>  <smiles>  (169) 
[H]c1c([H])c2c3c(c1[O-])OC([H])(C1([H])C4([H])C([H])([H])C5([H])C([H])([H])C6([H])OC7(c8c([H])c([H])c(Cl)c([H])c8[H])OOC8(C([H])(OC([H])([H])OC5([H])C6([H])[H])O7)C([H])([H])C([H])([H])[N+]1([H])C48[H])C31C([H])([H])C([H])([H])[N+]([H])(C([H])([H])C3([H])C([H])([H])C3([H])[H])C([H])(C2([H])[H])C1([H])[H]

$$$$
52:2:1
     RDKit          3D

 93104  0  0  1  0  0  0  0  0999 V2000
    3.7469    4.0027    7.3628 O   0  0  0  0  0  0  0  0  0  0  0  0
    2.3863    3.8761    7.1511 C   0  0  0  0  0  0  0  0  0  0  0  0
    1.4853    4.4349    8.0853 C   0  0  0  0  0  0  0  0  0  0  0  0
    0.0640    4.2830    7.9451 C   0  0  0  0  0  0  0  0  0  0  0  0
   -0.4333    3.6286    6.8064 C   0  0  0  0  0  0  0  0  0  0  0  0
    0.5176    3.1776    5.8852 C   0  0  0  0  0  0  0  0  0  0  0  0
    1.9123    3.1766    6.0140 C   0  0  0  0  0  0  0  0  0  0  0  0
    2.5494    2.4766    5.0294 O   0  0  0  0  0  0  0  0  0  0  0  0
    1.5662    1.7458    4.2705 C   0  0  1  0  0  0  0  0  0  0  0  0
    1.6137    0.2637    4.7687 C   0  0  2  0  0  0  0  0  0  0  0  0
    2.8151   -0.6158    4.3682 C   0  0  1  0  0  0  0  0  0  0  0  0
    4.0552   -0.7001    5.2848 C   0  0  0  0  0  0  0  0  0  0  0  0
    5.2882   -1.6000    4.9180 C   0  0  2  0  0  0  0  0  0  0  0  0
    5.3487   -2.1828    3.4850 C   0  0  0  0  0  0  0  0  0  0  0  0
    5.0343   -3.6752    3.6159 C   0  0  1  0  0  0  0  0  0  0  0  0
    5.5912   -4.0852    4.9916 C   0  0  0  0  0  0  0  0  0  0  0  0
    5.6677   -2.8003    5.8449 C   0  0  2  0  0  0  0  0  0  0  0  0
    5.1074   -2.8475    7.1597 O   0  0  0  0  0  0  0  0  0  0  0  0
    3.8752   -3.4679    7.3424 C   0  0  0  0  0  0  0  0  0  0  0  0
    2.9080   -2.8781    6.5331 O   0  0  0  0  0  0  0  0  0  0  0  0
    2.0628   -3.7441    5.8734 C   0  0  2  0  0  0  0  0  0  0  0  0
    2.6943   -4.8404    5.2773 O   0  0  0  0  0  0  0  0  0  0  0  0
    2.8401   -4.7825    3.8903 C   0  0  1  0  0  0  0  0  0  0  0  0
    3.4588   -6.1025    3.3982 C   0  0  0  0  0  0  0  0  0  0  0  0
    3.6800   -7.2001    4.2742 C   0  0  0  0  0  0  0  0  0  0  0  0
    4.2402   -8.4057    3.7998 C   0  0  0  0  0  0  0  0  0  0  0  0
    4.5905   -8.5335    2.4407 C   0  0  0  0  0  0  0  0  0  0  0  0
    5.3538   -9.9763    1.8821 Cl  0  0  0  0  0  0  0  0  0  0  0  0
    4.3543   -7.4658    1.5491 C   0  0  0  0  0  0  0  0  0  0  0  0
    3.7892   -6.2630    2.0290 C   0  0  0  0  0  0  0  0  0  0  0  0
    1.6090   -4.6704    3.2321 O   0  0  0  0  0  0  0  0  0  0  0  0
    0.5968   -3.8572    4.0127 O   0  0  0  0  0  0  0  0  0  0  0  0
    1.2201   -2.9182    4.8650 C   0  0  1  0  0  0  0  0  0  0  0  0
    0.0472   -2.3123    5.6244 C   0  0  0  0  0  0  0  0  0  0  0  0
   -0.4481   -1.2558    4.6765 C   0  0  0  0  0  0  0  0  0  0  0  0
    0.7593   -0.6769    4.0114 N   0  0  2  0  0  0  0  0  0  0  0  0
    1.8014   -1.7331    4.0048 C   0  0  1  0  0  0  0  0  0  0  0  0
    3.6274   -3.7118    3.4739 O   0  0  0  0  0  0  0  0  0  0  0  0
    0.2558    2.5802    4.5312 C   0  0  2  0  0  0  0  0  0  0  0  0
    0.1119    3.6827    3.4790 C   0  0  0  0  0  0  0  0  0  0  0  0
   -0.9898    4.6731    3.8345 C   0  0  0  0  0  0  0  0  0  0  0  0
   -2.2778    4.0025    4.0830 N   0  0  1  0  0  0  0  0  0  0  0  0
   -3.0215    3.6648    2.8449 C   0  0  0  0  0  0  0  0  0  0  0  0
   -3.8540    4.8199    2.3116 C   0  0  0  0  0  0  0  0  0  0  0  0
   -5.3740    4.8490    2.4586 C   0  0  0  0  0  0  0  0  0  0  0  0
   -4.7696    4.6396    1.1359 C   0  0  0  0  0  0  0  0  0  0  0  0
   -2.1419    2.8815    5.0292 C   0  0  2  0  0  0  0  0  0  0  0  0
   -1.8847    3.2854    6.4939 C   0  0  0  0  0  0  0  0  0  0  0  0
   -1.0957    1.8947    4.5557 C   0  0  0  0  0  0  0  0  0  0  0  0
    1.8516    4.9558    8.9598 H   0  0  0  0  0  0  0  0  0  0  0  0
   -0.6135    4.6697    8.6986 H   0  0  0  0  0  0  0  0  0  0  0  0
    1.8795    1.7990    3.2264 H   0  0  0  0  0  0  0  0  0  0  0  0
    1.4387    0.1712    5.8419 H   0  0  0  0  0  0  0  0  0  0  0  0
    3.1613   -0.2374    3.4093 H   0  0  0  0  0  0  0  0  0  0  0  0
    4.4619    0.3094    5.3049 H   0  0  0  0  0  0  0  0  0  0  0  0
    3.7724   -0.8031    6.3265 H   0  0  0  0  0  0  0  0  0  0  0  0
    6.1253   -0.9018    5.0129 H   0  0  0  0  0  0  0  0  0  0  0  0
    4.7493   -1.6615    2.7475 H   0  0  0  0  0  0  0  0  0  0  0  0
    6.3359   -2.0727    3.0590 H   0  0  0  0  0  0  0  0  0  0  0  0
    5.4940   -4.2409    2.8038 H   0  0  0  0  0  0  0  0  0  0  0  0
    5.0666   -4.9173    5.4392 H   0  0  0  0  0  0  0  0  0  0  0  0
    6.5951   -4.4893    4.8660 H   0  0  0  0  0  0  0  0  0  0  0  0
    6.7295   -2.6683    6.0744 H   0  0  0  0  0  0  0  0  0  0  0  0
    3.9791   -4.5481    7.2426 H   0  0  0  0  0  0  0  0  0  0  0  0
    3.6120   -3.2895    8.3843 H   0  0  0  0  0  0  0  0  0  0  0  0
    1.4117   -4.1935    6.6234 H   0  0  0  0  0  0  0  0  0  0  0  0
    3.4275   -7.1403    5.3208 H   0  0  0  0  0  0  0  0  0  0  0  0
    4.4182   -9.2365    4.4747 H   0  0  0  0  0  0  0  0  0  0  0  0
    4.6246   -7.5773    0.5046 H   0  0  0  0  0  0  0  0  0  0  0  0
    3.6275   -5.4566    1.3287 H   0  0  0  0  0  0  0  0  0  0  0  0
   -0.7623   -2.9915    5.8855 H   0  0  0  0  0  0  0  0  0  0  0  0
    0.3484   -1.8086    6.5440 H   0  0  0  0  0  0  0  0  0  0  0  0
   -1.1026   -1.6434    3.8981 H   0  0  0  0  0  0  0  0  0  0  0  0
   -1.1323   -0.7100    5.2861 H   0  0  0  0  0  0  0  0  0  0  0  0
    1.9037   -2.0190    2.9578 H   0  0  0  0  0  0  0  0  0  0  0  0
    1.0455    4.2088    3.3394 H   0  0  0  0  0  0  0  0  0  0  0  0
   -0.1051    3.2146    2.5232 H   0  0  0  0  0  0  0  0  0  0  0  0
   -0.7198    5.2574    4.7028 H   0  0  0  0  0  0  0  0  0  0  0  0
   -1.1226    5.3867    3.0463 H   0  0  0  0  0  0  0  0  0  0  0  0
   -2.3076    3.3665    2.0895 H   0  0  0  0  0  0  0  0  0  0  0  0
   -3.6785    2.8099    2.9775 H   0  0  0  0  0  0  0  0  0  0  0  0
   -3.3468    5.7771    2.3309 H   0  0  0  0  0  0  0  0  0  0  0  0
   -5.8168    4.0046    2.9621 H   0  0  0  0  0  0  0  0  0  0  0  0
   -5.8405    5.8084    2.6447 H   0  0  0  0  0  0  0  0  0  0  0  0
   -4.8405    5.4437    0.4048 H   0  0  0  0  0  0  0  0  0  0  0  0
   -4.8273    3.6342    0.7471 H   0  0  0  0  0  0  0  0  0  0  0  0
   -3.0671    2.3740    5.0724 H   0  0  0  0  0  0  0  0  0  0  0  0
   -2.1472    2.4852    7.1921 H   0  0  0  0  0  0  0  0  0  0  0  0
   -2.5008    4.1144    6.7949 H   0  0  0  0  0  0  0  0  0  0  0  0
   -1.3679    1.3826    3.6158 H   0  0  0  0  0  0  0  0  0  0  0  0
   -1.0491    1.2731    5.4113 H   0  0  0  0  0  0  0  0  0  0  0  0
   -2.8939    4.6125    4.6020 H   0  0  0  0  0  0  0  0  0  0  0  0
    0.5694   -0.2887    3.0837 H   0  0  0  0  0  0  0  0  0  0  0  0
  1  2  1  0
  2  7  2  0
  2  3  1  0
  3  4  2  0
  3 50  1  0
  4  5  1  0
  4 51  1  0
  5 48  1  0
  5  6  2  0
  6 39  1  0
  6  7  1  0
  7  8  1  0
  8  9  1  0
  9 10  1  0
  9 39  1  0
  9 52  1  6
 10 36  1  0
 10 11  1  0
 10 53  1  1
 11 37  1  0
 11 12  1  0
 11 54  1  6
 12 13  1  0
 12 55  1  0
 12 56  1  0
 13 17  1  0
 13 14  1  0
 13 57  1  6
 14 15  1  0
 14 58  1  0
 14 59  1  0
 15 38  1  0
 15 16  1  0
 15 60  1  6
 16 17  1  0
 16 61  1  0
 16 62  1  0
 17 18  1  0
 17 63  1  1
 18 19  1  0
 19 20  1  0
 19 64  1  0
 19 65  1  0
 20 21  1  0
 21 33  1  0
 21 22  1  0
 21 66  1  1
 22 23  1  0
 23 24  1  6
 23 31  1  0
 23 38  1  0
 24 30  1  0
 24 25  2  0
 25 26  1  0
 25 67  1  0
 26 27  2  0
 26 68  1  0
 27 28  1  0
 27 29  1  0
 29 30  2  0
 29 69  1  0
 30 70  1  0
 31 32  1  0
 33 32  1  6
 33 37  1  0
 33 34  1  0
 34 35  1  0
 34 71  1  0
 34 72  1  0
 35 36  1  0
 35 73  1  0
 35 74  1  0
 36 37  1  0
 36 93  1  6
 37 75  1  6
 39 49  1  0
 39 40  1  6
 40 41  1  0
 40 76  1  0
 40 77  1  0
 41 42  1  0
 41 78  1  0
 41 79  1  0
 42 43  1  0
 42 47  1  0
 42 92  1  1
 43 44  1  0
 43 80  1  0
 43 81  1  0
 44 46  1  0
 44 45  1  0
 44 82  1  0
 45 46  1  0
 45 83  1  0
 45 84  1  0
 46 85  1  0
 46 86  1  0
 47 48  1  0
 47 49  1  0
 47 87  1  1
 48 88  1  0
 48 89  1  0
 49 90  1  0
 49 91  1  0
M  CHG  3   1  -1  36   1  42   1
M  END
>  <i_m_ct_stereo_status>  (170) 
1

>  <s_m_source_file>  (170) 
/var/tmp/pbs.5083858.sched01/tmpvnyp8v7t/70kybzyij0.sdf

>  <i_m_source_file_index>  (170) 
1

>  <i_lp_mmshare_version>  (170) 
48012

>  <i_f3d_flags>  (170) 
0

>  <s_epik_input>  (170) 
W0NIMl0xW0NIMl1bQ0hdMVtDSDJdTihbQ0gyXVtDSDJdMilbQ0BASF0oW0NIMl0zKVtDSDJdYyhjNFtDQF0yMzUpW2NIXVtjSF1jKFtPSF0pYzRPW0NASF01W0NASF02TihbQ0gyXVtDSDJdNylbQ0BIXThbQ0BASF02W0NIMl1bQ0BASF0oW0NASF05T1tDSDJdT1tDQEhdMVtDQEBdMjc4KVtDSDJdW0NAQEhdKFtDSDJdOSlPW0NAQF0oTzEpKE9PMiljMVtjSF1bY0hdYyhDbClbY0hdW2NIXTE=

>  <s_epik_cmdline>  (170) 
J2VwaWtfcHl0aG9uJywgJy1waHQnLCAnMi4wJywgJy1waCcsICc3LjAnLCAnLXRuJywgJzgnLCAnLW1hJywgJzIwMCcsICctaW1hZScsICc8aW5maWxlLm1hZT4nLCAnLW9tYWUnLCAnPG91dGZpbGUubWFlPic=

>  <r_epik_Ionization_Penalty>  (170) 
2.28833

>  <r_epik_Ionization_Penalty_Charging>  (170) 
2.28833

>  <r_epik_Ionization_Penalty_Neutral>  (170) 
3.33106e-13

>  <r_epik_State_Penalty>  (170) 
2.36242

>  <r_epik_Charging_Adjusted_Penalty>  (170) 
4.65075

>  <i_epik_Tot_Q>  (170) 
1

>  <i_epik_Tot_abs_Q>  (170) 
3

>  <s_epik_Chemistry_Notes>  (170) 
This compound contains an acetal/aminal-like group ( X-CH(R)-Y where X, Y are N, S, or O) that may be acid/base labile, releasing an aldehyde.

>  <s_lp_Force_Field>  (170) 
OPLS3e

>  <r_lp_Energy>  (170) 
115.762

>  <b_lp_Chiralities_Consistent>  (170) 
1

>  <s_lp_Variant>  (170) 
52:0-3

>  <s_i_glide_gridfile>  (170) 
pfpi4k_grid

>  <i_i_glide_lignum>  (170) 
1

>  <i_i_glide_rotatable_bonds>  (170) 
4

>  <r_i_docking_score>  (170) 
-1.09942

>  <r_i_glide_ligand_efficiency>  (170) 
-0.0224371

>  <r_i_glide_ligand_efficiency_sa>  (170) 
-0.0821042

>  <r_i_glide_ligand_efficiency_ln>  (170) 
-0.224746

>  <r_i_glide_gscore>  (170) 
-1.09942

>  <r_i_glide_lipo>  (170) 
-0.50721

>  <r_i_glide_hbond>  (170) 
0

>  <r_i_glide_metal>  (170) 
-0

>  <r_i_glide_rewards>  (170) 
0

>  <r_i_glide_evdw>  (170) 
-11.099

>  <r_i_glide_ecoul>  (170) 
0.175895

>  <r_i_glide_erotb>  (170) 
0.00695412

>  <r_i_glide_esite>  (170) 
-0.0705952

>  <r_i_glide_emodel>  (170) 
-9.62604

>  <r_i_glide_energy>  (170) 
-10.9231

>  <r_i_glide_einternal>  (170) 
1.86421

>  <r_i_glide_intrahb_reward>  (170) 
-0

>  <i_i_glide_confnum>  (170) 
1

>  <i_i_glide_posenum>  (170) 
14

>  <r_i_glide_eff_state_penalty>  (170) 
0

>  <ligand_id>  (170) 
52

>  <original_smiles>  (170) 
Oc1ccc2c3c1OC(C1C4CC5CC6CC5OCOC5OC(c7ccc(Cl)cc7)(OOC57CCN1C47)O6)C31CCN(CC3CC3)C(C2)C1

>  <smiles>  (170) 
[H]c1c([H])c2c3c(c1[O-])OC([H])(C1([H])C4([H])C([H])([H])C5([H])C([H])([H])C6([H])OC7(c8c([H])c([H])c(Cl)c([H])c8[H])OOC8(C([H])(OC([H])([H])OC5([H])C6([H])[H])O7)C([H])([H])C([H])([H])[N+]1([H])C48[H])C31C([H])([H])C([H])([H])[N+]([H])(C([H])([H])C3([H])C([H])([H])C3([H])[H])C([H])(C2([H])[H])C1([H])[H]

$$$$
52:2:2
     RDKit          3D

 93104  0  0  1  0  0  0  0  0999 V2000
    3.8519    3.8761    7.3067 O   0  0  0  0  0  0  0  0  0  0  0  0
    2.5128    3.8144    7.1024 C   0  0  0  0  0  0  0  0  0  0  0  0
    1.6314    4.4952    7.9950 C   0  0  0  0  0  0  0  0  0  0  0  0
    0.2195    4.4101    7.8541 C   0  0  0  0  0  0  0  0  0  0  0  0
   -0.3194    3.6967    6.7685 C   0  0  0  0  0  0  0  0  0  0  0  0
    0.5972    3.1246    5.8840 C   0  0  0  0  0  0  0  0  0  0  0  0
    1.9748    3.0689    6.0272 C   0  0  0  0  0  0  0  0  0  0  0  0
    2.5877    2.2629    5.1003 O   0  0  0  0  0  0  0  0  0  0  0  0
    1.5569    1.5301    4.4008 C   0  0  1  0  0  0  0  0  0  0  0  0
    1.5200    0.0857    5.0032 C   0  0  2  0  0  0  0  0  0  0  0  0
    2.6518   -0.9016    4.6409 C   0  0  1  0  0  0  0  0  0  0  0  0
    3.9009   -1.0018    5.5488 C   0  0  0  0  0  0  0  0  0  0  0  0
    5.0678   -2.0050    5.2300 C   0  0  2  0  0  0  0  0  0  0  0  0
    5.0861   -2.6950    3.8489 C   0  0  0  0  0  0  0  0  0  0  0  0
    4.6634   -4.1479    4.0912 C   0  0  1  0  0  0  0  0  0  0  0  0
    5.2350   -4.4896    5.4779 C   0  0  0  0  0  0  0  0  0  0  0  0
    5.3954   -3.1531    6.2333 C   0  0  2  0  0  0  0  0  0  0  0  0
    4.8577   -3.0633    7.5585 O   0  0  0  0  0  0  0  0  0  0  0  0
    3.5916   -3.5850    7.8146 C   0  0  0  0  0  0  0  0  0  0  0  0
    2.6423   -2.9964    6.9828 O   0  0  0  0  0  0  0  0  0  0  0  0
    1.7286   -3.8485    6.3961 C   0  0  2  0  0  0  0  0  0  0  0  0
    2.2702   -5.0305    5.8755 O   0  0  0  0  0  0  0  0  0  0  0  0
    2.3946   -5.0871    4.4858 C   0  0  1  0  0  0  0  0  0  0  0  0
    2.9140   -6.4830    4.0863 C   0  0  0  0  0  0  0  0  0  0  0  0
    3.2342   -7.4708    5.0519 C   0  0  0  0  0  0  0  0  0  0  0  0
    3.7038   -8.7408    4.6626 C   0  0  0  0  0  0  0  0  0  0  0  0
    3.8599   -9.0485    3.3011 C   0  0  0  0  0  0  0  0  0  0  0  0
    4.4582  -10.6080    2.8632 Cl  0  0  0  0  0  0  0  0  0  0  0  0
    3.5388   -8.0854    2.3216 C   0  0  0  0  0  0  0  0  0  0  0  0
    3.0694   -6.8127    2.7159 C   0  0  0  0  0  0  0  0  0  0  0  0
    1.1536   -4.9522    3.8508 O   0  0  0  0  0  0  0  0  0  0  0  0
    0.2142   -4.0005    4.5680 O   0  0  0  0  0  0  0  0  0  0  0  0
    0.9129   -3.0428    5.3481 C   0  0  1  0  0  0  0  0  0  0  0  0
   -0.2067   -2.3009    6.0744 C   0  0  0  0  0  0  0  0  0  0  0  0
   -0.6516   -1.2939    5.0547 C   0  0  0  0  0  0  0  0  0  0  0  0
    0.5771   -0.8452    4.3281 N   0  0  2  0  0  0  0  0  0  0  0  0
    1.5517   -1.9709    4.3866 C   0  0  1  0  0  0  0  0  0  0  0  0
    3.2457   -4.0996    3.9865 O   0  0  0  0  0  0  0  0  0  0  0  0
    0.2894    2.4425    4.5809 C   0  0  2  0  0  0  0  0  0  0  0  0
    0.2026    3.4745    3.4438 C   0  0  0  0  0  0  0  0  0  0  0  0
   -0.8437    4.5616    3.7316 C   0  0  0  0  0  0  0  0  0  0  0  0
   -2.1815    3.9870    4.0481 N   0  0  1  0  0  0  0  0  0  0  0  0
   -2.9387    3.6003    2.8237 C   0  0  0  0  0  0  0  0  0  0  0  0
   -3.7777    4.7425    2.2711 C   0  0  0  0  0  0  0  0  0  0  0  0
   -5.2854    4.7811    2.4644 C   0  0  0  0  0  0  0  0  0  0  0  0
   -4.7297    4.4901    1.1326 C   0  0  0  0  0  0  0  0  0  0  0  0
   -2.1066    2.9068    5.0670 C   0  0  2  0  0  0  0  0  0  0  0  0
   -1.7936    3.4073    6.4978 C   0  0  0  0  0  0  0  0  0  0  0  0
   -1.1062    1.8398    4.6523 C   0  0  0  0  0  0  0  0  0  0  0  0
    2.0369    5.0545    8.8253 H   0  0  0  0  0  0  0  0  0  0  0  0
   -0.4333    4.8887    8.5727 H   0  0  0  0  0  0  0  0  0  0  0  0
    1.8660    1.4782    3.3567 H   0  0  0  0  0  0  0  0  0  0  0  0
    1.3519    0.0903    6.0796 H   0  0  0  0  0  0  0  0  0  0  0  0
    3.0179   -0.6216    3.6530 H   0  0  0  0  0  0  0  0  0  0  0  0
    4.3693   -0.0216    5.4842 H   0  0  0  0  0  0  0  0  0  0  0  0
    3.6307   -1.0048    6.5990 H   0  0  0  0  0  0  0  0  0  0  0  0
    5.9495   -1.3608    5.2627 H   0  0  0  0  0  0  0  0  0  0  0  0
    4.4946   -2.1943    3.0865 H   0  0  0  0  0  0  0  0  0  0  0  0
    6.1037   -2.6858    3.4565 H   0  0  0  0  0  0  0  0  0  0  0  0
    5.0555   -4.8053    3.3143 H   0  0  0  0  0  0  0  0  0  0  0  0
    4.6522   -5.2355    6.0011 H   0  0  0  0  0  0  0  0  0  0  0  0
    6.2147   -4.9564    5.3534 H   0  0  0  0  0  0  0  0  0  0  0  0
    6.4677   -3.0677    6.4280 H   0  0  0  0  0  0  0  0  0  0  0  0
    3.6216   -4.6750    7.7972 H   0  0  0  0  0  0  0  0  0  0  0  0
    3.3591   -3.3123    8.8447 H   0  0  0  0  0  0  0  0  0  0  0  0
    1.0659   -4.2015    7.1872 H   0  0  0  0  0  0  0  0  0  0  0  0
    3.1260   -7.2764    6.1074 H   0  0  0  0  0  0  0  0  0  0  0  0
    3.9504   -9.4889    5.4058 H   0  0  0  0  0  0  0  0  0  0  0  0
    3.6584   -8.3263    1.2725 H   0  0  0  0  0  0  0  0  0  0  0  0
    2.8280   -6.0887    1.9528 H   0  0  0  0  0  0  0  0  0  0  0  0
   -1.0438   -2.9144    6.4041 H   0  0  0  0  0  0  0  0  0  0  0  0
    0.1547   -1.7599    6.9531 H   0  0  0  0  0  0  0  0  0  0  0  0
   -1.3503   -1.6850    4.3145 H   0  0  0  0  0  0  0  0  0  0  0  0
   -1.2553   -0.6398    5.6335 H   0  0  0  0  0  0  0  0  0  0  0  0
    1.6125   -2.3490    3.3633 H   0  0  0  0  0  0  0  0  0  0  0  0
    1.1716    3.9334    3.2730 H   0  0  0  0  0  0  0  0  0  0  0  0
   -0.0385    2.9556    2.5160 H   0  0  0  0  0  0  0  0  0  0  0  0
   -0.5265    5.1932    4.5582 H   0  0  0  0  0  0  0  0  0  0  0  0
   -0.9371    5.2294    2.8892 H   0  0  0  0  0  0  0  0  0  0  0  0
   -2.2177    3.2847    2.0837 H   0  0  0  0  0  0  0  0  0  0  0  0
   -3.5726    2.7390    2.9978 H   0  0  0  0  0  0  0  0  0  0  0  0
   -3.2507    5.6882    2.2047 H   0  0  0  0  0  0  0  0  0  0  0  0
   -5.7003    3.9662    3.0343 H   0  0  0  0  0  0  0  0  0  0  0  0
   -5.7270    5.7571    2.6164 H   0  0  0  0  0  0  0  0  0  0  0  0
   -4.8261    5.2550    0.3621 H   0  0  0  0  0  0  0  0  0  0  0  0
   -4.8025    3.4650    0.7932 H   0  0  0  0  0  0  0  0  0  0  0  0
   -3.0878    2.4804    5.1572 H   0  0  0  0  0  0  0  0  0  0  0  0
   -2.1047    2.6881    7.2574 H   0  0  0  0  0  0  0  0  0  0  0  0
   -2.3538    4.2876    6.7407 H   0  0  0  0  0  0  0  0  0  0  0  0
   -1.4010    1.2828    3.7536 H   0  0  0  0  0  0  0  0  0  0  0  0
   -1.0877    1.2589    5.5295 H   0  0  0  0  0  0  0  0  0  0  0  0
   -2.7410    4.6825    4.5057 H   0  0  0  0  0  0  0  0  0  0  0  0
    0.3903   -0.5230    3.3843 H   0  0  0  0  0  0  0  0  0  0  0  0
  1  2  1  0
  2  7  2  0
  2  3  1  0
  3  4  2  0
  3 50  1  0
  4  5  1  0
  4 51  1  0
  5 48  1  0
  5  6  2  0
  6 39  1  0
  6  7  1  0
  7  8  1  0
  8  9  1  0
  9 10  1  0
  9 39  1  0
  9 52  1  6
 10 36  1  0
 10 11  1  0
 10 53  1  1
 11 37  1  0
 11 12  1  0
 11 54  1  6
 12 13  1  0
 12 55  1  0
 12 56  1  0
 13 17  1  0
 13 14  1  0
 13 57  1  6
 14 15  1  0
 14 58  1  0
 14 59  1  0
 15 38  1  0
 15 16  1  0
 15 60  1  6
 16 17  1  0
 16 61  1  0
 16 62  1  0
 17 18  1  0
 17 63  1  1
 18 19  1  0
 19 20  1  0
 19 64  1  0
 19 65  1  0
 20 21  1  0
 21 33  1  0
 21 22  1  0
 21 66  1  1
 22 23  1  0
 23 24  1  1
 23 31  1  0
 23 38  1  0
 24 30  1  0
 24 25  2  0
 25 26  1  0
 25 67  1  0
 26 27  2  0
 26 68  1  0
 27 28  1  0
 27 29  1  0
 29 30  2  0
 29 69  1  0
 30 70  1  0
 31 32  1  0
 33 32  1  6
 33 37  1  0
 33 34  1  0
 34 35  1  0
 34 71  1  0
 34 72  1  0
 35 36  1  0
 35 73  1  0
 35 74  1  0
 36 37  1  0
 36 93  1  6
 37 75  1  6
 39 49  1  0
 39 40  1  6
 40 41  1  0
 40 76  1  0
 40 77  1  0
 41 42  1  0
 41 78  1  0
 41 79  1  0
 42 43  1  0
 42 47  1  0
 42 92  1  1
 43 44  1  0
 43 80  1  0
 43 81  1  0
 44 46  1  0
 44 45  1  0
 44 82  1  0
 45 46  1  0
 45 83  1  0
 45 84  1  0
 46 85  1  0
 46 86  1  0
 47 48  1  0
 47 49  1  0
 47 87  1  1
 48 88  1  0
 48 89  1  0
 49 90  1  0
 49 91  1  0
M  CHG  3   1  -1  36   1  42   1
M  END
>  <i_m_ct_stereo_status>  (171) 
1

>  <s_m_source_file>  (171) 
/var/tmp/pbs.5083858.sched01/tmpvnyp8v7t/70kybzyij0.sdf

>  <i_m_source_file_index>  (171) 
1

>  <i_lp_mmshare_version>  (171) 
48012

>  <i_f3d_flags>  (171) 
0

>  <s_epik_input>  (171) 
W0NIMl0xW0NIMl1bQ0hdMVtDSDJdTihbQ0gyXVtDSDJdMilbQ0BASF0oW0NIMl0zKVtDSDJdYyhjNFtDQF0yMzUpW2NIXVtjSF1jKFtPSF0pYzRPW0NASF01W0NASF02TihbQ0gyXVtDSDJdNylbQ0BIXThbQ0BASF02W0NIMl1bQ0BASF0oW0NASF05T1tDSDJdT1tDQEhdMVtDQEBdMjc4KVtDSDJdW0NAQEhdKFtDSDJdOSlPW0NAQF0oTzEpKE9PMiljMVtjSF1bY0hdYyhDbClbY0hdW2NIXTE=

>  <s_epik_cmdline>  (171) 
J2VwaWtfcHl0aG9uJywgJy1waHQnLCAnMi4wJywgJy1waCcsICc3LjAnLCAnLXRuJywgJzgnLCAnLW1hJywgJzIwMCcsICctaW1hZScsICc8aW5maWxlLm1hZT4nLCAnLW9tYWUnLCAnPG91dGZpbGUubWFlPic=

>  <r_epik_Ionization_Penalty>  (171) 
2.28833

>  <r_epik_Ionization_Penalty_Charging>  (171) 
2.28833

>  <r_epik_Ionization_Penalty_Neutral>  (171) 
3.33106e-13

>  <r_epik_State_Penalty>  (171) 
2.36242

>  <r_epik_Charging_Adjusted_Penalty>  (171) 
4.65075

>  <i_epik_Tot_Q>  (171) 
1

>  <i_epik_Tot_abs_Q>  (171) 
3

>  <s_epik_Chemistry_Notes>  (171) 
This compound contains an acetal/aminal-like group ( X-CH(R)-Y where X, Y are N, S, or O) that may be acid/base labile, releasing an aldehyde.

>  <s_lp_Force_Field>  (171) 
OPLS3e

>  <r_lp_Energy>  (171) 
115.762

>  <b_lp_Chiralities_Consistent>  (171) 
1

>  <s_lp_Variant>  (171) 
52:0-3

>  <s_i_glide_gridfile>  (171) 
pfpi4k_grid

>  <i_i_glide_lignum>  (171) 
1

>  <i_i_glide_rotatable_bonds>  (171) 
4

>  <r_i_docking_score>  (171) 
-1.02391

>  <r_i_glide_ligand_efficiency>  (171) 
-0.0208961

>  <r_i_glide_ligand_efficiency_sa>  (171) 
-0.0764654

>  <r_i_glide_ligand_efficiency_ln>  (171) 
-0.209311

>  <r_i_glide_gscore>  (171) 
-1.02391

>  <r_i_glide_lipo>  (171) 
-0.366201

>  <r_i_glide_hbond>  (171) 
0

>  <r_i_glide_metal>  (171) 
-0

>  <r_i_glide_rewards>  (171) 
0

>  <r_i_glide_evdw>  (171) 
-14.4949

>  <r_i_glide_ecoul>  (171) 
0.894247

>  <r_i_glide_erotb>  (171) 
0.00695412

>  <r_i_glide_esite>  (171) 
-0.0740576

>  <r_i_glide_emodel>  (171) 
-12.3225

>  <r_i_glide_energy>  (171) 
-13.6006

>  <r_i_glide_einternal>  (171) 
2.11501

>  <r_i_glide_intrahb_reward>  (171) 
-0

>  <i_i_glide_confnum>  (171) 
1

>  <i_i_glide_posenum>  (171) 
22

>  <r_i_glide_eff_state_penalty>  (171) 
0

>  <ligand_id>  (171) 
52

>  <original_smiles>  (171) 
Oc1ccc2c3c1OC(C1C4CC5CC6CC5OCOC5OC(c7ccc(Cl)cc7)(OOC57CCN1C47)O6)C31CCN(CC3CC3)C(C2)C1

>  <smiles>  (171) 
[H]c1c([H])c2c3c(c1[O-])OC([H])(C1([H])C4([H])C([H])([H])C5([H])C([H])([H])C6([H])OC7(c8c([H])c([H])c(Cl)c([H])c8[H])OOC8(C([H])(OC([H])([H])OC5([H])C6([H])[H])O7)C([H])([H])C([H])([H])[N+]1([H])C48[H])C31C([H])([H])C([H])([H])[N+]([H])(C([H])([H])C3([H])C([H])([H])C3([H])[H])C([H])(C2([H])[H])C1([H])[H]

$$$$
52:3:0
     RDKit          3D

 92103  0  0  1  0  0  0  0  0999 V2000
    5.6427   -7.2100    1.6983 O   0  0  0  0  0  0  0  0  0  0  0  0
    5.8353   -5.9774    1.1396 C   0  0  0  0  0  0  0  0  0  0  0  0
    7.1215   -5.6036    0.6914 C   0  0  0  0  0  0  0  0  0  0  0  0
    7.3646   -4.3285    0.1185 C   0  0  0  0  0  0  0  0  0  0  0  0
    6.2825   -3.4427   -0.0558 C   0  0  0  0  0  0  0  0  0  0  0  0
    5.0232   -3.8922    0.3737 C   0  0  0  0  0  0  0  0  0  0  0  0
    4.7457   -5.0786    1.0120 C   0  0  0  0  0  0  0  0  0  0  0  0
    3.4521   -5.1892    1.4321 O   0  0  0  0  0  0  0  0  0  0  0  0
    2.8519   -3.8807    1.3178 C   0  0  1  0  0  0  0  0  0  0  0  0
    2.8304   -3.1984    2.7122 C   0  0  2  0  0  0  0  0  0  0  0  0
    2.6136   -4.0466    3.9706 C   0  0  1  0  0  0  0  0  0  0  0  0
    3.8789   -4.5921    4.6867 C   0  0  0  0  0  0  0  0  0  0  0  0
    3.7630   -5.4349    6.0017 C   0  0  2  0  0  0  0  0  0  0  0  0
    2.3763   -5.9706    6.4059 C   0  0  0  0  0  0  0  0  0  0  0  0
    1.9093   -5.1015    7.5775 C   0  0  1  0  0  0  0  0  0  0  0  0
    3.1955   -4.7558    8.3431 C   0  0  0  0  0  0  0  0  0  0  0  0
    4.3498   -4.8655    7.3274 C   0  0  2  0  0  0  0  0  0  0  0  0
    5.2756   -3.7756    7.2483 O   0  0  0  0  0  0  0  0  0  0  0  0
    4.7814   -2.4729    7.2572 C   0  0  0  0  0  0  0  0  0  0  0  0
    3.8890   -2.2803    6.2075 O   0  0  0  0  0  0  0  0  0  0  0  0
    2.7338   -1.5849    6.5093 C   0  0  2  0  0  0  0  0  0  0  0  0
    2.0972   -1.9949    7.6995 O   0  0  0  0  0  0  0  0  0  0  0  0
    0.9675   -2.8047    7.5667 C   0  0  1  0  0  0  0  0  0  0  0  0
    0.3756   -3.0490    8.9711 C   0  0  0  0  0  0  0  0  0  0  0  0
    0.9311   -2.4706   10.1442 C   0  0  0  0  0  0  0  0  0  0  0  0
    0.3668   -2.7208   11.4139 C   0  0  0  0  0  0  0  0  0  0  0  0
   -0.7654   -3.5466   11.5345 C   0  0  0  0  0  0  0  0  0  0  0  0
   -1.4561   -3.8641   13.0801 Cl  0  0  0  0  0  0  0  0  0  0  0  0
   -1.3295   -4.1193   10.3831 C   0  0  0  0  0  0  0  0  0  0  0  0
   -0.7654   -3.8727    9.1144 C   0  0  0  0  0  0  0  0  0  0  0  0
   -0.0409   -2.1719    6.8335 O   0  0  0  0  0  0  0  0  0  0  0  0
    0.5221   -1.2137    5.7783 O   0  0  0  0  0  0  0  0  0  0  0  0
    1.7818   -1.6555    5.2780 C   0  0  1  0  0  0  0  0  0  0  0  0
    2.2036   -0.6245    4.2431 C   0  0  0  0  0  0  0  0  0  0  0  0
    1.5428   -1.1138    2.9612 C   0  0  0  0  0  0  0  0  0  0  0  0
    1.5350   -2.5725    3.0285 N   0  0  0  0  0  0  0  0  0  0  0  0
    1.5877   -2.9730    4.4492 C   0  0  1  0  0  0  0  0  0  0  0  0
    1.2403   -4.0219    6.9455 O   0  0  0  0  0  0  0  0  0  0  0  0
    3.7116   -3.1801    0.2067 C   0  0  2  0  0  0  0  0  0  0  0  0
    3.1134   -3.5071   -1.1797 C   0  0  0  0  0  0  0  0  0  0  0  0
    4.0699   -3.1579   -2.3470 C   0  0  0  0  0  0  0  0  0  0  0  0
    4.4979   -1.7406   -2.2646 N   0  0  1  0  0  0  0  0  0  0  0  0
    3.4752   -0.8268   -2.8296 C   0  0  0  0  0  0  0  0  0  0  0  0
    3.6441   -0.5843   -4.3174 C   0  0  0  0  0  0  0  0  0  0  0  0
    3.8459    0.8259   -4.8407 C   0  0  0  0  0  0  0  0  0  0  0  0
    2.5511    0.1433   -5.0713 C   0  0  0  0  0  0  0  0  0  0  0  0
    4.9694   -1.3455   -0.8994 C   0  0  2  0  0  0  0  0  0  0  0  0
    6.3275   -2.0067   -0.5588 C   0  0  0  0  0  0  0  0  0  0  0  0
    3.9297   -1.6636    0.2020 C   0  0  0  0  0  0  0  0  0  0  0  0
    7.9393   -6.3072    0.7736 H   0  0  0  0  0  0  0  0  0  0  0  0
    8.3543   -4.0467   -0.2021 H   0  0  0  0  0  0  0  0  0  0  0  0
    1.8308   -4.0551    0.9520 H   0  0  0  0  0  0  0  0  0  0  0  0
    3.6504   -2.5093    2.8991 H   0  0  0  0  0  0  0  0  0  0  0  0
    2.0069   -4.8992    3.6606 H   0  0  0  0  0  0  0  0  0  0  0  0
    4.3484   -5.2689    3.9689 H   0  0  0  0  0  0  0  0  0  0  0  0
    4.6590   -3.8364    4.7590 H   0  0  0  0  0  0  0  0  0  0  0  0
    4.3669   -6.3166    5.7786 H   0  0  0  0  0  0  0  0  0  0  0  0
    1.6525   -6.0235    5.5928 H   0  0  0  0  0  0  0  0  0  0  0  0
    2.4976   -6.9915    6.7691 H   0  0  0  0  0  0  0  0  0  0  0  0
    1.2024   -5.6376    8.2124 H   0  0  0  0  0  0  0  0  0  0  0  0
    3.1476   -3.8281    8.9042 H   0  0  0  0  0  0  0  0  0  0  0  0
    3.3463   -5.5180    9.1089 H   0  0  0  0  0  0  0  0  0  0  0  0
    4.9773   -5.6700    7.7159 H   0  0  0  0  0  0  0  0  0  0  0  0
    4.3999   -2.2179    8.2470 H   0  0  0  0  0  0  0  0  0  0  0  0
    5.6414   -1.8229    7.0949 H   0  0  0  0  0  0  0  0  0  0  0  0
    3.0303   -0.5491    6.7038 H   0  0  0  0  0  0  0  0  0  0  0  0
    1.8017   -1.8326   10.0913 H   0  0  0  0  0  0  0  0  0  0  0  0
    0.7975   -2.2771   12.2995 H   0  0  0  0  0  0  0  0  0  0  0  0
   -2.1997   -4.7489   10.4752 H   0  0  0  0  0  0  0  0  0  0  0  0
   -1.2029   -4.3287    8.2401 H   0  0  0  0  0  0  0  0  0  0  0  0
    1.8812    0.3813    4.5037 H   0  0  0  0  0  0  0  0  0  0  0  0
    3.2838   -0.6116    4.1090 H   0  0  0  0  0  0  0  0  0  0  0  0
    0.5019   -0.7933    2.9553 H   0  0  0  0  0  0  0  0  0  0  0  0
    1.9950   -0.7198    2.0520 H   0  0  0  0  0  0  0  0  0  0  0  0
    0.6331   -3.4602    4.6574 H   0  0  0  0  0  0  0  0  0  0  0  0
    2.8770   -4.5693   -1.1806 H   0  0  0  0  0  0  0  0  0  0  0  0
    2.1549   -2.9973   -1.3180 H   0  0  0  0  0  0  0  0  0  0  0  0
    4.9455   -3.8105   -2.3397 H   0  0  0  0  0  0  0  0  0  0  0  0
    3.5874   -3.3437   -3.3095 H   0  0  0  0  0  0  0  0  0  0  0  0
    2.4645   -1.2011   -2.6578 H   0  0  0  0  0  0  0  0  0  0  0  0
    3.5603    0.1345   -2.3450 H   0  0  0  0  0  0  0  0  0  0  0  0
    4.1147   -1.3935   -4.8786 H   0  0  0  0  0  0  0  0  0  0  0  0
    3.8671    1.6470   -4.1210 H   0  0  0  0  0  0  0  0  0  0  0  0
    4.4897    0.9560   -5.7059 H   0  0  0  0  0  0  0  0  0  0  0  0
    2.3622   -0.2003   -6.0801 H   0  0  0  0  0  0  0  0  0  0  0  0
    1.7007    0.5654   -4.5400 H   0  0  0  0  0  0  0  0  0  0  0  0
    5.1415   -0.2628   -0.9058 H   0  0  0  0  0  0  0  0  0  0  0  0
    6.7934   -1.4339    0.2427 H   0  0  0  0  0  0  0  0  0  0  0  0
    7.0027   -1.9580   -1.4113 H   0  0  0  0  0  0  0  0  0  0  0  0
    2.9969   -1.1295    0.0205 H   0  0  0  0  0  0  0  0  0  0  0  0
    4.3161   -1.3341    1.1640 H   0  0  0  0  0  0  0  0  0  0  0  0
    5.3030   -1.6466   -2.8615 H   0  0  0  0  0  0  0  0  0  0  0  0
  1  2  1  0
  2  7  2  0
  2  3  1  0
  3  4  2  0
  3 50  1  0
  4  5  1  0
  4 51  1  0
  5 48  1  0
  5  6  2  0
  6 39  1  0
  6  7  1  0
  7  8  1  0
  8  9  1  0
  9 10  1  0
  9 39  1  0
  9 52  1  6
 10 36  1  0
 10 11  1  0
 10 53  1  1
 11 37  1  0
 11 12  1  0
 11 54  1  6
 12 13  1  0
 12 55  1  0
 12 56  1  0
 13 17  1  0
 13 14  1  0
 13 57  1  6
 14 15  1  0
 14 58  1  0
 14 59  1  0
 15 38  1  0
 15 16  1  0
 15 60  1  1
 16 17  1  0
 16 61  1  0
 16 62  1  0
 17 18  1  0
 17 63  1  1
 18 19  1  0
 19 20  1  0
 19 64  1  0
 19 65  1  0
 20 21  1  0
 21 33  1  0
 21 22  1  0
 21 66  1  1
 22 23  1  0
 23 24  1  1
 23 31  1  0
 23 38  1  0
 24 30  1  0
 24 25  2  0
 25 26  1  0
 25 67  1  0
 26 27  2  0
 26 68  1  0
 27 28  1  0
 27 29  1  0
 29 30  2  0
 29 69  1  0
 30 70  1  0
 31 32  1  0
 33 32  1  1
 33 37  1  0
 33 34  1  0
 34 35  1  0
 34 71  1  0
 34 72  1  0
 35 36  1  0
 35 73  1  0
 35 74  1  0
 36 37  1  0
 37 75  1  1
 39 49  1  0
 39 40  1  6
 40 41  1  0
 40 76  1  0
 40 77  1  0
 41 42  1  0
 41 78  1  0
 41 79  1  0
 42 43  1  0
 42 47  1  0
 42 92  1  6
 43 44  1  0
 43 80  1  0
 43 81  1  0
 44 46  1  0
 44 45  1  0
 44 82  1  0
 45 46  1  0
 45 83  1  0
 45 84  1  0
 46 85  1  0
 46 86  1  0
 47 48  1  0
 47 49  1  0
 47 87  1  6
 48 88  1  0
 48 89  1  0
 49 90  1  0
 49 91  1  0
M  CHG  2   1  -1  42   1
M  END
>  <i_m_ct_stereo_status>  (172) 
1

>  <s_m_source_file>  (172) 
/var/tmp/pbs.5083858.sched01/tmpvnyp8v7t/70kybzyij0.sdf

>  <i_m_source_file_index>  (172) 
2

>  <i_lp_mmshare_version>  (172) 
48012

>  <i_f3d_flags>  (172) 
0

>  <s_epik_input>  (172) 
W0NIMl0xW0NIMl1bQ0hdMVtDSDJdTihbQ0gyXVtDSDJdMilbQ0BASF0oW0NIMl0zKVtDSDJdYyhjNFtDQF0yMzUpW2NIXVtjSF1jKFtPSF0pYzRPW0NASF01W0NASF02TihbQ0gyXVtDSDJdNylbQ0BIXThbQ0BASF02W0NIMl1bQ0BASF0oW0NASF05T1tDSDJdT1tDQEhdMVtDQEBdMjc4KVtDSDJdW0NAQEhdKFtDSDJdOSlPW0NAQF0oTzEpKE9PMiljMVtjSF1bY0hdYyhDbClbY0hdW2NIXTE=

>  <s_epik_cmdline>  (172) 
J2VwaWtfcHl0aG9uJywgJy1waHQnLCAnMi4wJywgJy1waCcsICc3LjAnLCAnLXRuJywgJzgnLCAnLW1hJywgJzIwMCcsICctaW1hZScsICc8aW5maWxlLm1hZT4nLCAnLW9tYWUnLCAnPG91dGZpbGUubWFlPic=

>  <r_epik_Ionization_Penalty>  (172) 
2.31605

>  <r_epik_Ionization_Penalty_Charging>  (172) 
1.83466

>  <r_epik_Ionization_Penalty_Neutral>  (172) 
0.481382

>  <r_epik_State_Penalty>  (172) 
2.47779

>  <r_epik_Charging_Adjusted_Penalty>  (172) 
4.31246

>  <i_epik_Tot_Q>  (172) 
0

>  <i_epik_Tot_abs_Q>  (172) 
2

>  <s_epik_Chemistry_Notes>  (172) 
This compound contains an acetal/aminal-like group ( X-CH(R)-Y where X, Y are N, S, or O) that may be acid/base labile, releasing an aldehyde.

>  <s_lp_Force_Field>  (172) 
OPLS3e

>  <r_lp_Energy>  (172) 
116.082

>  <b_lp_Chiralities_Consistent>  (172) 
1

>  <s_lp_Variant>  (172) 
52:0-4

>  <s_i_glide_gridfile>  (172) 
pfpi4k_grid

>  <i_i_glide_lignum>  (172) 
2

>  <i_i_glide_rotatable_bonds>  (172) 
4

>  <r_i_docking_score>  (172) 
-2.70261

>  <r_i_glide_ligand_efficiency>  (172) 
-0.0551554

>  <r_i_glide_ligand_efficiency_sa>  (172) 
-0.20183

>  <r_i_glide_ligand_efficiency_ln>  (172) 
-0.552476

>  <r_i_glide_gscore>  (172) 
-2.70261

>  <r_i_glide_lipo>  (172) 
-0.85295

>  <r_i_glide_hbond>  (172) 
0

>  <r_i_glide_metal>  (172) 
-0

>  <r_i_glide_rewards>  (172) 
0

>  <r_i_glide_evdw>  (172) 
-34.2744

>  <r_i_glide_ecoul>  (172) 
-0.764586

>  <r_i_glide_erotb>  (172) 
0.00787622

>  <r_i_glide_esite>  (172) 
-0.0291339

>  <r_i_glide_emodel>  (172) 
-42.6927

>  <r_i_glide_energy>  (172) 
-35.039

>  <r_i_glide_einternal>  (172) 
3.63485

>  <r_i_glide_intrahb_reward>  (172) 
-0

>  <i_i_glide_confnum>  (172) 
2

>  <i_i_glide_posenum>  (172) 
19

>  <r_i_glide_eff_state_penalty>  (172) 
0

>  <ligand_id>  (172) 
52

>  <original_smiles>  (172) 
Oc1ccc2c3c1OC(C1C4CC5CC6CC5OCOC5OC(c7ccc(Cl)cc7)(OOC57CCN1C47)O6)C31CCN(CC3CC3)C(C2)C1

>  <smiles>  (172) 
[H]c1c([H])c2c3c(c1[O-])OC([H])(C1([H])N4C([H])([H])C([H])([H])C56OOC7(c8c([H])c([H])c(Cl)c([H])c8[H])OC5([H])OC([H])([H])OC5([H])C([H])([H])C([H])(O7)C([H])([H])C5([H])C([H])([H])C1([H])C46[H])C31C([H])([H])C([H])([H])[N+]([H])(C([H])([H])C3([H])C([H])([H])C3([H])[H])C([H])(C2([H])[H])C1([H])[H]

$$$$
52:3:1
     RDKit          3D

 92103  0  0  1  0  0  0  0  0999 V2000
    5.9802   -6.5374    2.5052 O   0  0  0  0  0  0  0  0  0  0  0  0
    6.0401   -5.4294    1.7112 C   0  0  0  0  0  0  0  0  0  0  0  0
    7.2702   -5.0536    1.1200 C   0  0  0  0  0  0  0  0  0  0  0  0
    7.3793   -3.8863    0.3286 C   0  0  0  0  0  0  0  0  0  0  0  0
    6.2232   -3.1194    0.0763 C   0  0  0  0  0  0  0  0  0  0  0  0
    5.0241   -3.5803    0.6480 C   0  0  0  0  0  0  0  0  0  0  0  0
    4.8763   -4.6504    1.4919 C   0  0  0  0  0  0  0  0  0  0  0  0
    3.6123   -4.7833    1.9993 O   0  0  0  0  0  0  0  0  0  0  0  0
    2.8844   -3.5721    1.6889 C   0  0  1  0  0  0  0  0  0  0  0  0
    2.8650   -2.6511    2.9432 C   0  0  2  0  0  0  0  0  0  0  0  0
    2.9419   -3.2650    4.3470 C   0  0  1  0  0  0  0  0  0  0  0  0
    4.3525   -3.4226    4.9765 C   0  0  0  0  0  0  0  0  0  0  0  0
    4.5346   -4.0090    6.4173 C   0  0  2  0  0  0  0  0  0  0  0  0
    3.3273   -4.6986    7.0798 C   0  0  0  0  0  0  0  0  0  0  0  0
    2.8083   -3.7205    8.1369 C   0  0  1  0  0  0  0  0  0  0  0  0
    4.0643   -3.0110    8.6643 C   0  0  0  0  0  0  0  0  0  0  0  0
    5.1176   -3.1026    7.5420 C   0  0  2  0  0  0  0  0  0  0  0  0
    5.7968   -1.9002    7.1614 O   0  0  0  0  0  0  0  0  0  0  0  0
    5.0556   -0.7290    7.0147 C   0  0  0  0  0  0  0  0  0  0  0  0
    4.0482   -0.9013    6.0704 O   0  0  0  0  0  0  0  0  0  0  0  0
    2.8088   -0.3830    6.3963 C   0  0  2  0  0  0  0  0  0  0  0  0
    2.3832   -0.6643    7.7115 O   0  0  0  0  0  0  0  0  0  0  0  0
    1.4278   -1.6718    7.8640 C   0  0  1  0  0  0  0  0  0  0  0  0
    1.0307   -1.7482    9.3533 C   0  0  0  0  0  0  0  0  0  0  0  0
    1.4866   -0.8035   10.3100 C   0  0  0  0  0  0  0  0  0  0  0  0
    1.1087   -0.9052   11.6666 C   0  0  0  0  0  0  0  0  0  0  0  0
    0.2657   -1.9484   12.0910 C   0  0  0  0  0  0  0  0  0  0  0  0
   -0.1716   -2.0940   13.7515 Cl  0  0  0  0  0  0  0  0  0  0  0  0
   -0.2040   -2.8833   11.1536 C   0  0  0  0  0  0  0  0  0  0  0  0
    0.1698   -2.7799    9.7977 C   0  0  0  0  0  0  0  0  0  0  0  0
    0.2490   -1.3775    7.1729 O   0  0  0  0  0  0  0  0  0  0  0  0
    0.5063   -0.5633    5.8992 O   0  0  0  0  0  0  0  0  0  0  0  0
    1.7789   -0.8552    5.3249 C   0  0  1  0  0  0  0  0  0  0  0  0
    1.8876    0.0205    4.0849 C   0  0  0  0  0  0  0  0  0  0  0  0
    1.2223   -0.8146    2.9971 C   0  0  0  0  0  0  0  0  0  0  0  0
    1.5068   -2.2141    3.3102 N   0  0  0  0  0  0  0  0  0  0  0  0
    1.7721   -2.3181    4.7601 C   0  0  1  0  0  0  0  0  0  0  0  0
    1.8804   -2.9159    7.4241 O   0  0  0  0  0  0  0  0  0  0  0  0
    3.6481   -3.0170    0.4304 C   0  0  2  0  0  0  0  0  0  0  0  0
    3.0369   -3.6368   -0.8538 C   0  0  0  0  0  0  0  0  0  0  0  0
    3.9156   -3.4044   -2.1033 C   0  0  0  0  0  0  0  0  0  0  0  0
    4.2080   -1.9632   -2.2830 N   0  0  1  0  0  0  0  0  0  0  0  0
    3.0849   -1.2424   -2.9418 C   0  0  0  0  0  0  0  0  0  0  0  0
    3.4658   -0.7294   -4.3169 C   0  0  0  0  0  0  0  0  0  0  0  0
    3.8245    0.7233   -4.5406 C   0  0  0  0  0  0  0  0  0  0  0  0
    2.5214    0.2109   -5.0384 C   0  0  0  0  0  0  0  0  0  0  0  0
    4.7047   -1.3072   -1.0344 C   0  0  2  0  0  0  0  0  0  0  0  0
    6.1289   -1.7948   -0.6617 C   0  0  0  0  0  0  0  0  0  0  0  0
    3.7442   -1.5069    0.1640 C   0  0  0  0  0  0  0  0  0  0  0  0
    8.1508   -5.6556    1.2947 H   0  0  0  0  0  0  0  0  0  0  0  0
    8.3299   -3.5776   -0.0765 H   0  0  0  0  0  0  0  0  0  0  0  0
    1.8705   -3.8754    1.4194 H   0  0  0  0  0  0  0  0  0  0  0  0
    3.5431   -1.7991    2.9097 H   0  0  0  0  0  0  0  0  0  0  0  0
    2.4934   -4.2579    4.2755 H   0  0  0  0  0  0  0  0  0  0  0  0
    4.8778   -4.1284    4.3299 H   0  0  0  0  0  0  0  0  0  0  0  0
    4.9685   -2.5398    4.8168 H   0  0  0  0  0  0  0  0  0  0  0  0
    5.2781   -4.7946    6.2695 H   0  0  0  0  0  0  0  0  0  0  0  0
    2.5550   -5.0322    6.3873 H   0  0  0  0  0  0  0  0  0  0  0  0
    3.6807   -5.5948    7.5905 H   0  0  0  0  0  0  0  0  0  0  0  0
    2.2882   -4.2498    8.9360 H   0  0  0  0  0  0  0  0  0  0  0  0
    3.8801   -2.0170    9.0591 H   0  0  0  0  0  0  0  0  0  0  0  0
    4.4327   -3.5717    9.5247 H   0  0  0  0  0  0  0  0  0  0  0  0
    5.9272   -3.6924    7.9761 H   0  0  0  0  0  0  0  0  0  0  0  0
    4.7254   -0.3635    7.9881 H   0  0  0  0  0  0  0  0  0  0  0  0
    5.7494    0.0221    6.6362 H   0  0  0  0  0  0  0  0  0  0  0  0
    2.9063    0.7066    6.3743 H   0  0  0  0  0  0  0  0  0  0  0  0
    2.1383    0.0088   10.0217 H   0  0  0  0  0  0  0  0  0  0  0  0
    1.4625   -0.1829   12.3870 H   0  0  0  0  0  0  0  0  0  0  0  0
   -0.8477   -3.6858   11.4783 H   0  0  0  0  0  0  0  0  0  0  0  0
   -0.1832   -3.5149    9.0921 H   0  0  0  0  0  0  0  0  0  0  0  0
    1.3971    0.9840    4.2119 H   0  0  0  0  0  0  0  0  0  0  0  0
    2.9251    0.2047    3.8120 H   0  0  0  0  0  0  0  0  0  0  0  0
    0.1428   -0.6858    3.0709 H   0  0  0  0  0  0  0  0  0  0  0  0
    1.5037   -0.5287    1.9830 H   0  0  0  0  0  0  0  0  0  0  0  0
    0.9586   -2.9170    5.1734 H   0  0  0  0  0  0  0  0  0  0  0  0
    2.8946   -4.7099   -0.7147 H   0  0  0  0  0  0  0  0  0  0  0  0
    2.0406   -3.2200   -1.0322 H   0  0  0  0  0  0  0  0  0  0  0  0
    4.8464   -3.9721   -2.0284 H   0  0  0  0  0  0  0  0  0  0  0  0
    3.4266   -3.7986   -2.9978 H   0  0  0  0  0  0  0  0  0  0  0  0
    2.2200   -1.8916   -3.0702 H   0  0  0  0  0  0  0  0  0  0  0  0
    2.7308   -0.4085   -2.3393 H   0  0  0  0  0  0  0  0  0  0  0  0
    3.9332   -1.4652   -4.9714 H   0  0  0  0  0  0  0  0  0  0  0  0
    3.8440    1.3555   -3.6579 H   0  0  0  0  0  0  0  0  0  0  0  0
    4.5860    0.9465   -5.2871 H   0  0  0  0  0  0  0  0  0  0  0  0
    2.4468    0.1239   -6.1145 H   0  0  0  0  0  0  0  0  0  0  0  0
    1.6305    0.5672   -4.5264 H   0  0  0  0  0  0  0  0  0  0  0  0
    4.7808   -0.2417   -1.2524 H   0  0  0  0  0  0  0  0  0  0  0  0
    6.5778   -1.0521    0.0018 H   0  0  0  0  0  0  0  0  0  0  0  0
    6.7586   -1.8582   -1.5478 H   0  0  0  0  0  0  0  0  0  0  0  0
    2.7604   -1.0833   -0.0332 H   0  0  0  0  0  0  0  0  0  0  0  0
    4.1438   -0.9746    1.0249 H   0  0  0  0  0  0  0  0  0  0  0  0
    4.9753   -1.9197   -2.9335 H   0  0  0  0  0  0  0  0  0  0  0  0
  1  2  1  0
  2  7  2  0
  2  3  1  0
  3  4  2  0
  3 50  1  0
  4  5  1  0
  4 51  1  0
  5 48  1  0
  5  6  2  0
  6 39  1  0
  6  7  1  0
  7  8  1  0
  8  9  1  0
  9 10  1  0
  9 39  1  0
  9 52  1  6
 10 36  1  0
 10 11  1  0
 10 53  1  6
 11 37  1  0
 11 12  1  0
 11 54  1  6
 12 13  1  0
 12 55  1  0
 12 56  1  0
 13 17  1  0
 13 14  1  0
 13 57  1  6
 14 15  1  0
 14 58  1  0
 14 59  1  0
 15 38  1  0
 15 16  1  0
 15 60  1  1
 16 17  1  0
 16 61  1  0
 16 62  1  0
 17 18  1  0
 17 63  1  1
 18 19  1  0
 19 20  1  0
 19 64  1  0
 19 65  1  0
 20 21  1  0
 21 33  1  0
 21 22  1  0
 21 66  1  1
 22 23  1  0
 23 24  1  1
 23 31  1  0
 23 38  1  0
 24 30  1  0
 24 25  2  0
 25 26  1  0
 25 67  1  0
 26 27  2  0
 26 68  1  0
 27 28  1  0
 27 29  1  0
 29 30  2  0
 29 69  1  0
 30 70  1  0
 31 32  1  0
 33 32  1  1
 33 37  1  0
 33 34  1  0
 34 35  1  0
 34 71  1  0
 34 72  1  0
 35 36  1  0
 35 73  1  0
 35 74  1  0
 36 37  1  0
 37 75  1  1
 39 49  1  0
 39 40  1  6
 40 41  1  0
 40 76  1  0
 40 77  1  0
 41 42  1  0
 41 78  1  0
 41 79  1  0
 42 43  1  0
 42 47  1  0
 42 92  1  6
 43 44  1  0
 43 80  1  0
 43 81  1  0
 44 46  1  0
 44 45  1  0
 44 82  1  0
 45 46  1  0
 45 83  1  0
 45 84  1  0
 46 85  1  0
 46 86  1  0
 47 48  1  0
 47 49  1  0
 47 87  1  6
 48 88  1  0
 48 89  1  0
 49 90  1  0
 49 91  1  0
M  CHG  2   1  -1  42   1
M  END
>  <i_m_ct_stereo_status>  (173) 
1

>  <s_m_source_file>  (173) 
/var/tmp/pbs.5083858.sched01/tmpvnyp8v7t/70kybzyij0.sdf

>  <i_m_source_file_index>  (173) 
2

>  <i_lp_mmshare_version>  (173) 
48012

>  <i_f3d_flags>  (173) 
0

>  <s_epik_input>  (173) 
W0NIMl0xW0NIMl1bQ0hdMVtDSDJdTihbQ0gyXVtDSDJdMilbQ0BASF0oW0NIMl0zKVtDSDJdYyhjNFtDQF0yMzUpW2NIXVtjSF1jKFtPSF0pYzRPW0NASF01W0NASF02TihbQ0gyXVtDSDJdNylbQ0BIXThbQ0BASF02W0NIMl1bQ0BASF0oW0NASF05T1tDSDJdT1tDQEhdMVtDQEBdMjc4KVtDSDJdW0NAQEhdKFtDSDJdOSlPW0NAQF0oTzEpKE9PMiljMVtjSF1bY0hdYyhDbClbY0hdW2NIXTE=

>  <s_epik_cmdline>  (173) 
J2VwaWtfcHl0aG9uJywgJy1waHQnLCAnMi4wJywgJy1waCcsICc3LjAnLCAnLXRuJywgJzgnLCAnLW1hJywgJzIwMCcsICctaW1hZScsICc8aW5maWxlLm1hZT4nLCAnLW9tYWUnLCAnPG91dGZpbGUubWFlPic=

>  <r_epik_Ionization_Penalty>  (173) 
2.31605

>  <r_epik_Ionization_Penalty_Charging>  (173) 
1.83466

>  <r_epik_Ionization_Penalty_Neutral>  (173) 
0.481382

>  <r_epik_State_Penalty>  (173) 
2.47779

>  <r_epik_Charging_Adjusted_Penalty>  (173) 
4.31246

>  <i_epik_Tot_Q>  (173) 
0

>  <i_epik_Tot_abs_Q>  (173) 
2

>  <s_epik_Chemistry_Notes>  (173) 
This compound contains an acetal/aminal-like group ( X-CH(R)-Y where X, Y are N, S, or O) that may be acid/base labile, releasing an aldehyde.

>  <s_lp_Force_Field>  (173) 
OPLS3e

>  <r_lp_Energy>  (173) 
116.082

>  <b_lp_Chiralities_Consistent>  (173) 
1

>  <s_lp_Variant>  (173) 
52:0-4

>  <s_i_glide_gridfile>  (173) 
pfpi4k_grid

>  <i_i_glide_lignum>  (173) 
2

>  <i_i_glide_rotatable_bonds>  (173) 
4

>  <r_i_docking_score>  (173) 
-2.69507

>  <r_i_glide_ligand_efficiency>  (173) 
-0.0550014

>  <r_i_glide_ligand_efficiency_sa>  (173) 
-0.201267

>  <r_i_glide_ligand_efficiency_ln>  (173) 
-0.550934

>  <r_i_glide_gscore>  (173) 
-2.69507

>  <r_i_glide_lipo>  (173) 
-0.73952

>  <r_i_glide_hbond>  (173) 
0

>  <r_i_glide_metal>  (173) 
-0

>  <r_i_glide_rewards>  (173) 
0

>  <r_i_glide_evdw>  (173) 
-35.4756

>  <r_i_glide_ecoul>  (173) 
-1.17144

>  <r_i_glide_erotb>  (173) 
0.00787622

>  <r_i_glide_esite>  (173) 
-0.013926

>  <r_i_glide_emodel>  (173) 
-43.6084

>  <r_i_glide_energy>  (173) 
-36.6471

>  <r_i_glide_einternal>  (173) 
5.18973

>  <r_i_glide_intrahb_reward>  (173) 
-0

>  <i_i_glide_confnum>  (173) 
2

>  <i_i_glide_posenum>  (173) 
5

>  <r_i_glide_eff_state_penalty>  (173) 
0

>  <ligand_id>  (173) 
52

>  <original_smiles>  (173) 
Oc1ccc2c3c1OC(C1C4CC5CC6CC5OCOC5OC(c7ccc(Cl)cc7)(OOC57CCN1C47)O6)C31CCN(CC3CC3)C(C2)C1

>  <smiles>  (173) 
[H]c1c([H])c2c3c(c1[O-])OC([H])(C1([H])N4C([H])([H])C([H])([H])C56OOC7(c8c([H])c([H])c(Cl)c([H])c8[H])OC5([H])OC([H])([H])OC5([H])C([H])([H])C([H])(O7)C([H])([H])C5([H])C([H])([H])C1([H])C46[H])C31C([H])([H])C([H])([H])[N+]([H])(C([H])([H])C3([H])C([H])([H])C3([H])[H])C([H])(C2([H])[H])C1([H])[H]

$$$$
52:3:2
     RDKit          3D

 92103  0  0  1  0  0  0  0  0999 V2000
    6.3235   -5.1884    8.4007 O   0  0  0  0  0  0  0  0  0  0  0  0
    5.7158   -5.8628    7.3797 C   0  0  0  0  0  0  0  0  0  0  0  0
    6.4602   -6.7854    6.6053 C   0  0  0  0  0  0  0  0  0  0  0  0
    5.8771   -7.4755    5.5173 C   0  0  0  0  0  0  0  0  0  0  0  0
    4.5090   -7.2905    5.2418 C   0  0  0  0  0  0  0  0  0  0  0  0
    3.8139   -6.4066    6.0902 C   0  0  0  0  0  0  0  0  0  0  0  0
    4.3460   -5.6348    7.0923 C   0  0  0  0  0  0  0  0  0  0  0  0
    3.4531   -4.7620    7.6549 O   0  0  0  0  0  0  0  0  0  0  0  0
    2.2723   -4.7432    6.8190 C   0  0  1  0  0  0  0  0  0  0  0  0
    2.3373   -3.4767    5.9182 C   0  0  2  0  0  0  0  0  0  0  0  0
    2.5634   -2.1033    6.5740 C   0  0  1  0  0  0  0  0  0  0  0  0
    4.0235   -1.5956    6.7241 C   0  0  0  0  0  0  0  0  0  0  0  0
    4.3353   -0.1916    7.3506 C   0  0  2  0  0  0  0  0  0  0  0  0
    3.2036    0.5456    8.0894 C   0  0  0  0  0  0  0  0  0  0  0  0
    2.7583    1.6745    7.1578 C   0  0  1  0  0  0  0  0  0  0  0  0
    4.0366    2.1214    6.4352 C   0  0  0  0  0  0  0  0  0  0  0  0
    4.9920    0.9120    6.4680 C   0  0  2  0  0  0  0  0  0  0  0  0
    5.6121    0.5163    5.2399 O   0  0  0  0  0  0  0  0  0  0  0  0
    4.8345    0.4626    4.0852 C   0  0  0  0  0  0  0  0  0  0  0  0
    3.7541   -0.3932    4.2519 O   0  0  0  0  0  0  0  0  0  0  0  0
    2.5412    0.0597    3.7676 C   0  0  2  0  0  0  0  0  0  0  0  0
    2.2340    1.3952    4.1019 O   0  0  0  0  0  0  0  0  0  0  0  0
    1.3134    1.5920    5.1331 C   0  0  1  0  0  0  0  0  0  0  0  0
    1.0467    3.1059    5.2659 C   0  0  0  0  0  0  0  0  0  0  0  0
    1.4743    4.0391    4.2850 C   0  0  0  0  0  0  0  0  0  0  0  0
    1.2185    5.4194    4.4371 C   0  0  0  0  0  0  0  0  0  0  0  0
    0.5304    5.8913    5.5699 C   0  0  0  0  0  0  0  0  0  0  0  0
    0.2258    7.5763    5.7661 Cl  0  0  0  0  0  0  0  0  0  0  0  0
    0.0859    4.9786    6.5413 C   0  0  0  0  0  0  0  0  0  0  0  0
    0.3290    3.5994    6.3818 C   0  0  0  0  0  0  0  0  0  0  0  0
    0.0766    1.0093    4.8470 O   0  0  0  0  0  0  0  0  0  0  0  0
    0.2119   -0.2513    3.9875 O   0  0  0  0  0  0  0  0  0  0  0  0
    1.4374   -0.9330    4.2330 C   0  0  1  0  0  0  0  0  0  0  0  0
    1.4183   -2.1370    3.3133 C   0  0  0  0  0  0  0  0  0  0  0  0
    0.6515   -3.1653    4.1252 C   0  0  0  0  0  0  0  0  0  0  0  0
    1.0107   -2.9649    5.5279 N   0  0  0  0  0  0  0  0  0  0  0  0
    1.4132   -1.5498    5.6764 C   0  0  1  0  0  0  0  0  0  0  0  0
    1.7559    1.0719    6.3522 O   0  0  0  0  0  0  0  0  0  0  0  0
    2.3378   -6.1376    6.0917 C   0  0  2  0  0  0  0  0  0  0  0  0
    1.6057   -7.2094    6.9461 C   0  0  0  0  0  0  0  0  0  0  0  0
    1.8675   -8.6464    6.4377 C   0  0  0  0  0  0  0  0  0  0  0  0
    1.5681   -8.7875    4.9893 N   0  0  1  0  0  0  0  0  0  0  0  0
    0.1153   -9.0095    4.7630 C   0  0  0  0  0  0  0  0  0  0  0  0
   -0.2603   -9.2051    3.3018 C   0  0  0  0  0  0  0  0  0  0  0  0
   -0.6912   -8.0159    2.4635 C   0  0  0  0  0  0  0  0  0  0  0  0
   -1.7031   -9.0501    2.8650 C   0  0  0  0  0  0  0  0  0  0  0  0
    2.1824   -7.7050    4.1562 C   0  0  2  0  0  0  0  0  0  0  0  0
    3.7163   -7.8488    4.0672 C   0  0  0  0  0  0  0  0  0  0  0  0
    1.8032   -6.3007    4.6674 C   0  0  0  0  0  0  0  0  0  0  0  0
    7.5029   -6.9556    6.8283 H   0  0  0  0  0  0  0  0  0  0  0  0
    6.4633   -8.1345    4.8972 H   0  0  0  0  0  0  0  0  0  0  0  0
    1.4041   -4.6919    7.4815 H   0  0  0  0  0  0  0  0  0  0  0  0
    2.9886   -3.5680    5.0492 H   0  0  0  0  0  0  0  0  0  0  0  0
    2.1339   -2.1732    7.5760 H   0  0  0  0  0  0  0  0  0  0  0  0
    4.5064   -2.3078    7.3966 H   0  0  0  0  0  0  0  0  0  0  0  0
    4.6055   -1.7731    5.8222 H   0  0  0  0  0  0  0  0  0  0  0  0
    5.0799   -0.4239    8.1136 H   0  0  0  0  0  0  0  0  0  0  0  0
    2.3807   -0.0884    8.4181 H   0  0  0  0  0  0  0  0  0  0  0  0
    3.6157    0.9974    8.9926 H   0  0  0  0  0  0  0  0  0  0  0  0
    2.3251    2.4935    7.7319 H   0  0  0  0  0  0  0  0  0  0  0  0
    3.8635    2.5645    5.4591 H   0  0  0  0  0  0  0  0  0  0  0  0
    4.4861    2.9295    7.0143 H   0  0  0  0  0  0  0  0  0  0  0  0
    5.8464    1.2587    7.0523 H   0  0  0  0  0  0  0  0  0  0  0  0
    4.5676    1.4677    3.7636 H   0  0  0  0  0  0  0  0  0  0  0  0
    5.4788    0.0588    3.3032 H   0  0  0  0  0  0  0  0  0  0  0  0
    2.6121    0.0662    2.6753 H   0  0  0  0  0  0  0  0  0  0  0  0
    2.0033    3.7123    3.4008 H   0  0  0  0  0  0  0  0  0  0  0  0
    1.5419    6.1198    3.6809 H   0  0  0  0  0  0  0  0  0  0  0  0
   -0.4422    5.3312    7.4136 H   0  0  0  0  0  0  0  0  0  0  0  0
   -0.0122    2.9114    7.1386 H   0  0  0  0  0  0  0  0  0  0  0  0
    0.9314   -1.9325    2.3635 H   0  0  0  0  0  0  0  0  0  0  0  0
    2.4231   -2.5052    3.1055 H   0  0  0  0  0  0  0  0  0  0  0  0
   -0.4173   -2.9627    4.0656 H   0  0  0  0  0  0  0  0  0  0  0  0
    0.7927   -4.1671    3.7418 H   0  0  0  0  0  0  0  0  0  0  0  0
    0.6524   -1.0885    6.3091 H   0  0  0  0  0  0  0  0  0  0  0  0
    1.9157   -7.1401    7.9917 H   0  0  0  0  0  0  0  0  0  0  0  0
    0.5297   -7.0073    6.9401 H   0  0  0  0  0  0  0  0  0  0  0  0
    2.9095   -8.9159    6.6226 H   0  0  0  0  0  0  0  0  0  0  0  0
    1.2829   -9.3639    7.0199 H   0  0  0  0  0  0  0  0  0  0  0  0
   -0.1863   -9.9055    5.3069 H   0  0  0  0  0  0  0  0  0  0  0  0
   -0.4692   -8.1839    5.1668 H   0  0  0  0  0  0  0  0  0  0  0  0
    0.2990   -9.9935    2.7924 H   0  0  0  0  0  0  0  0  0  0  0  0
   -0.7301   -7.0468    2.9588 H   0  0  0  0  0  0  0  0  0  0  0  0
   -0.3584   -8.0034    1.4261 H   0  0  0  0  0  0  0  0  0  0  0  0
   -2.0626   -9.7204    2.0868 H   0  0  0  0  0  0  0  0  0  0  0  0
   -2.4326   -8.7845    3.6284 H   0  0  0  0  0  0  0  0  0  0  0  0
    1.8385   -7.8048    3.1252 H   0  0  0  0  0  0  0  0  0  0  0  0
    4.0483   -7.2993    3.1846 H   0  0  0  0  0  0  0  0  0  0  0  0
    3.9887   -8.8890    3.8939 H   0  0  0  0  0  0  0  0  0  0  0  0
    0.7232   -6.1464    4.6390 H   0  0  0  0  0  0  0  0  0  0  0  0
    2.2840   -5.5809    4.0092 H   0  0  0  0  0  0  0  0  0  0  0  0
    2.0120   -9.6446    4.6982 H   0  0  0  0  0  0  0  0  0  0  0  0
  1  2  1  0
  2  7  2  0
  2  3  1  0
  3  4  2  0
  3 50  1  0
  4  5  1  0
  4 51  1  0
  5 48  1  0
  5  6  2  0
  6 39  1  0
  6  7  1  0
  7  8  1  0
  8  9  1  0
  9 10  1  0
  9 39  1  0
  9 52  1  1
 10 36  1  0
 10 11  1  0
 10 53  1  6
 11 37  1  0
 11 12  1  0
 11 54  1  1
 12 13  1  0
 12 55  1  0
 12 56  1  0
 13 17  1  0
 13 14  1  0
 13 57  1  1
 14 15  1  0
 14 58  1  0
 14 59  1  0
 15 38  1  0
 15 16  1  0
 15 60  1  1
 16 17  1  0
 16 61  1  0
 16 62  1  0
 17 18  1  0
 17 63  1  1
 18 19  1  0
 19 20  1  0
 19 64  1  0
 19 65  1  0
 20 21  1  0
 21 33  1  0
 21 22  1  0
 21 66  1  6
 22 23  1  0
 23 24  1  1
 23 31  1  0
 23 38  1  0
 24 30  1  0
 24 25  2  0
 25 26  1  0
 25 67  1  0
 26 27  2  0
 26 68  1  0
 27 28  1  0
 27 29  1  0
 29 30  2  0
 29 69  1  0
 30 70  1  0
 31 32  1  0
 33 32  1  6
 33 37  1  0
 33 34  1  0
 34 35  1  0
 34 71  1  0
 34 72  1  0
 35 36  1  0
 35 73  1  0
 35 74  1  0
 36 37  1  0
 37 75  1  1
 39 49  1  0
 39 40  1  1
 40 41  1  0
 40 76  1  0
 40 77  1  0
 41 42  1  0
 41 78  1  0
 41 79  1  0
 42 43  1  0
 42 47  1  0
 42 92  1  6
 43 44  1  0
 43 80  1  0
 43 81  1  0
 44 46  1  0
 44 45  1  0
 44 82  1  0
 45 46  1  0
 45 83  1  0
 45 84  1  0
 46 85  1  0
 46 86  1  0
 47 48  1  0
 47 49  1  0
 47 87  1  6
 48 88  1  0
 48 89  1  0
 49 90  1  0
 49 91  1  0
M  CHG  2   1  -1  42   1
M  END
>  <i_m_ct_stereo_status>  (174) 
1

>  <s_m_source_file>  (174) 
/var/tmp/pbs.5083858.sched01/tmpvnyp8v7t/70kybzyij0.sdf

>  <i_m_source_file_index>  (174) 
2

>  <i_lp_mmshare_version>  (174) 
48012

>  <i_f3d_flags>  (174) 
0

>  <s_epik_input>  (174) 
W0NIMl0xW0NIMl1bQ0hdMVtDSDJdTihbQ0gyXVtDSDJdMilbQ0BASF0oW0NIMl0zKVtDSDJdYyhjNFtDQF0yMzUpW2NIXVtjSF1jKFtPSF0pYzRPW0NASF01W0NASF02TihbQ0gyXVtDSDJdNylbQ0BIXThbQ0BASF02W0NIMl1bQ0BASF0oW0NASF05T1tDSDJdT1tDQEhdMVtDQEBdMjc4KVtDSDJdW0NAQEhdKFtDSDJdOSlPW0NAQF0oTzEpKE9PMiljMVtjSF1bY0hdYyhDbClbY0hdW2NIXTE=

>  <s_epik_cmdline>  (174) 
J2VwaWtfcHl0aG9uJywgJy1waHQnLCAnMi4wJywgJy1waCcsICc3LjAnLCAnLXRuJywgJzgnLCAnLW1hJywgJzIwMCcsICctaW1hZScsICc8aW5maWxlLm1hZT4nLCAnLW9tYWUnLCAnPG91dGZpbGUubWFlPic=

>  <r_epik_Ionization_Penalty>  (174) 
2.31605

>  <r_epik_Ionization_Penalty_Charging>  (174) 
1.83466

>  <r_epik_Ionization_Penalty_Neutral>  (174) 
0.481382

>  <r_epik_State_Penalty>  (174) 
2.47779

>  <r_epik_Charging_Adjusted_Penalty>  (174) 
4.31246

>  <i_epik_Tot_Q>  (174) 
0

>  <i_epik_Tot_abs_Q>  (174) 
2

>  <s_epik_Chemistry_Notes>  (174) 
This compound contains an acetal/aminal-like group ( X-CH(R)-Y where X, Y are N, S, or O) that may be acid/base labile, releasing an aldehyde.

>  <s_lp_Force_Field>  (174) 
OPLS3e

>  <r_lp_Energy>  (174) 
116.082

>  <b_lp_Chiralities_Consistent>  (174) 
1

>  <s_lp_Variant>  (174) 
52:0-4

>  <s_i_glide_gridfile>  (174) 
pfpi4k_grid

>  <i_i_glide_lignum>  (174) 
2

>  <i_i_glide_rotatable_bonds>  (174) 
4

>  <r_i_docking_score>  (174) 
-2.28908

>  <r_i_glide_ligand_efficiency>  (174) 
-0.0467159

>  <r_i_glide_ligand_efficiency_sa>  (174) 
-0.170948

>  <r_i_glide_ligand_efficiency_ln>  (174) 
-0.46794

>  <r_i_glide_gscore>  (174) 
-2.28908

>  <r_i_glide_lipo>  (174) 
-0.0596622

>  <r_i_glide_hbond>  (174) 
0

>  <r_i_glide_metal>  (174) 
-0

>  <r_i_glide_rewards>  (174) 
-0.077624

>  <r_i_glide_evdw>  (174) 
-29.7049

>  <r_i_glide_ecoul>  (174) 
-4.35486

>  <r_i_glide_erotb>  (174) 
0.00787622

>  <r_i_glide_esite>  (174) 
-0.0211973

>  <r_i_glide_emodel>  (174) 
-41.5467

>  <r_i_glide_energy>  (174) 
-34.0597

>  <r_i_glide_einternal>  (174) 
0.971996

>  <r_i_glide_intrahb_reward>  (174) 
-0

>  <i_i_glide_confnum>  (174) 
1

>  <i_i_glide_posenum>  (174) 
17

>  <r_i_glide_eff_state_penalty>  (174) 
0

>  <ligand_id>  (174) 
52

>  <original_smiles>  (174) 
Oc1ccc2c3c1OC(C1C4CC5CC6CC5OCOC5OC(c7ccc(Cl)cc7)(OOC57CCN1C47)O6)C31CCN(CC3CC3)C(C2)C1

>  <smiles>  (174) 
[H]c1c([H])c2c3c(c1[O-])OC([H])(C1([H])N4C([H])([H])C([H])([H])C56OOC7(c8c([H])c([H])c(Cl)c([H])c8[H])OC5([H])OC([H])([H])OC5([H])C([H])([H])C([H])(O7)C([H])([H])C5([H])C([H])([H])C1([H])C46[H])C31C([H])([H])C([H])([H])[N+]([H])(C([H])([H])C3([H])C([H])([H])C3([H])[H])C([H])(C2([H])[H])C1([H])[H]

$$$$
52:4:0
     RDKit          3D

 93104  0  0  1  0  0  0  0  0999 V2000
    2.1893    2.6821    9.0171 O   0  0  0  0  0  0  0  0  0  0  0  0
    1.1409    2.9364    8.1811 C   0  0  0  0  0  0  0  0  0  0  0  0
   -0.1494    3.1622    8.7058 C   0  0  0  0  0  0  0  0  0  0  0  0
   -1.2659    3.3951    7.8558 C   0  0  0  0  0  0  0  0  0  0  0  0
   -1.0536    3.4634    6.4565 C   0  0  0  0  0  0  0  0  0  0  0  0
    0.2594    3.2760    6.0057 C   0  0  0  0  0  0  0  0  0  0  0  0
    1.3645    2.9549    6.7719 C   0  0  0  0  0  0  0  0  0  0  0  0
    2.4854    2.6952    6.0426 O   0  0  0  0  0  0  0  0  0  0  0  0
    2.1011    2.5784    4.6478 C   0  0  1  0  0  0  0  0  0  0  0  0
    1.9960    1.0646    4.2973 C   0  0  2  0  0  0  0  0  0  0  0  0
    3.0458    0.0975    4.8440 C   0  0  1  0  0  0  0  0  0  0  0  0
    2.7783   -0.6146    6.2075 C   0  0  0  0  0  0  0  0  0  0  0  0
    3.8078   -1.6291    6.8164 C   0  0  2  0  0  0  0  0  0  0  0  0
    5.2193   -1.7104    6.1877 C   0  0  0  0  0  0  0  0  0  0  0  0
    5.2491   -3.0082    5.3833 C   0  0  1  0  0  0  0  0  0  0  0  0
    4.3422   -3.9487    6.1974 C   0  0  0  0  0  0  0  0  0  0  0  0
    3.3760   -3.1003    7.0183 C   0  0  2  0  0  0  0  0  0  0  0  0
    1.9833   -3.4388    6.8981 O   0  0  0  0  0  0  0  0  0  0  0  0
    1.4312   -3.7356    5.6436 C   0  0  0  0  0  0  0  0  0  0  0  0
    1.6271   -2.6738    4.7695 O   0  0  0  0  0  0  0  0  0  0  0  0
    2.0058   -3.0067    3.4855 C   0  0  2  0  0  0  0  0  0  0  0  0
    3.0388   -3.9672    3.3998 O   0  0  0  0  0  0  0  0  0  0  0  0
    4.3178   -3.4900    3.1121 C   0  0  1  0  0  0  0  0  0  0  0  0
    5.2566   -4.7120    2.9417 C   0  0  0  0  0  0  0  0  0  0  0  0
    5.1092   -5.9206    3.6981 C   0  0  0  0  0  0  0  0  0  0  0  0
    6.0525   -6.9609    3.6055 C   0  0  0  0  0  0  0  0  0  0  0  0
    7.1040   -6.8782    2.6946 C   0  0  0  0  0  0  0  0  0  0  0  0
    8.1792   -8.1962    2.5919 Cl  0  0  0  0  0  0  0  0  0  0  0  0
    7.2359   -5.7380    1.8779 C   0  0  0  0  0  0  0  0  0  0  0  0
    6.3327   -4.6570    2.0202 C   0  0  0  0  0  0  0  0  0  0  0  0
    4.3543   -2.7780    1.9013 O   0  0  0  0  0  0  0  0  0  0  0  0
    3.0175   -2.1222    1.5633 O   0  0  0  0  0  0  0  0  0  0  0  0
    2.3539   -1.6851    2.7384 C   0  0  1  0  0  0  0  0  0  0  0  0
    1.0714   -1.0281    2.2395 C   0  0  0  0  0  0  0  0  0  0  0  0
    1.4883    0.4130    1.9492 C   0  0  0  0  0  0  0  0  0  0  0  0
    2.5052    0.7384    2.9620 N   0  0  2  0  0  0  0  0  0  0  0  0
    3.1463   -0.5047    3.4185 C   0  0  1  0  0  0  0  0  0  0  0  0
    4.7949   -2.6230    4.0971 O   0  0  0  0  0  0  0  0  0  0  0  0
    0.7537    3.3896    4.5821 C   0  0  2  0  0  0  0  0  0  0  0  0
    1.0674    4.8780    4.2557 C   0  0  0  0  0  0  0  0  0  0  0  0
   -0.1714    5.7713    4.4203 C   0  0  0  0  0  0  0  0  0  0  0  0
   -1.3014    5.2161    3.6672 N   0  0  0  0  0  0  0  0  0  0  0  0
   -1.3646    5.6955    2.2975 C   0  0  0  0  0  0  0  0  0  0  0  0
   -2.1891    6.9179    1.9831 C   0  0  0  0  0  0  0  0  0  0  0  0
   -3.6585    6.8142    1.6298 C   0  0  0  0  0  0  0  0  0  0  0  0
   -2.6525    7.1971    0.5691 C   0  0  0  0  0  0  0  0  0  0  0  0
   -1.6039    3.8001    3.9013 C   0  0  2  0  0  0  0  0  0  0  0  0
   -2.1045    3.5870    5.3504 C   0  0  0  0  0  0  0  0  0  0  0  0
   -0.3654    2.9450    3.6151 C   0  0  0  0  0  0  0  0  0  0  0  0
    1.9374    2.6971    9.9296 H   0  0  0  0  0  0  0  0  0  0  0  0
   -0.3149    3.1382    9.7765 H   0  0  0  0  0  0  0  0  0  0  0  0
   -2.2554    3.5094    8.2783 H   0  0  0  0  0  0  0  0  0  0  0  0
    2.8758    3.0782    4.0491 H   0  0  0  0  0  0  0  0  0  0  0  0
    1.0256    0.6183    4.5160 H   0  0  0  0  0  0  0  0  0  0  0  0
    3.9506    0.6945    4.9434 H   0  0  0  0  0  0  0  0  0  0  0  0
    2.7308    0.1865    6.9482 H   0  0  0  0  0  0  0  0  0  0  0  0
    1.7593   -0.9902    6.2760 H   0  0  0  0  0  0  0  0  0  0  0  0
    3.9519   -1.2626    7.8330 H   0  0  0  0  0  0  0  0  0  0  0  0
    5.5267   -0.8301    5.6178 H   0  0  0  0  0  0  0  0  0  0  0  0
    5.9369   -1.8181    7.0022 H   0  0  0  0  0  0  0  0  0  0  0  0
    6.2552   -3.4114    5.2946 H   0  0  0  0  0  0  0  0  0  0  0  0
    3.7831   -4.6547    5.6084 H   0  0  0  0  0  0  0  0  0  0  0  0
    4.9725   -4.5498    6.8579 H   0  0  0  0  0  0  0  0  0  0  0  0
    3.6116   -3.3586    8.0492 H   0  0  0  0  0  0  0  0  0  0  0  0
    1.7562   -4.7097    5.2714 H   0  0  0  0  0  0  0  0  0  0  0  0
    0.3594   -3.8523    5.7993 H   0  0  0  0  0  0  0  0  0  0  0  0
    1.1470   -3.4988    3.0149 H   0  0  0  0  0  0  0  0  0  0  0  0
    4.2922   -6.1324    4.3802 H   0  0  0  0  0  0  0  0  0  0  0  0
    5.9525   -7.8406    4.2247 H   0  0  0  0  0  0  0  0  0  0  0  0
    8.0319   -5.6860    1.1450 H   0  0  0  0  0  0  0  0  0  0  0  0
    6.4833   -3.7826    1.4036 H   0  0  0  0  0  0  0  0  0  0  0  0
    0.6778   -1.4983    1.3391 H   0  0  0  0  0  0  0  0  0  0  0  0
    0.3004   -1.0432    3.0138 H   0  0  0  0  0  0  0  0  0  0  0  0
    1.9514    0.4531    0.9632 H   0  0  0  0  0  0  0  0  0  0  0  0
    0.6312    1.0859    1.9094 H   0  0  0  0  0  0  0  0  0  0  0  0
    4.1851   -0.4555    3.0950 H   0  0  0  0  0  0  0  0  0  0  0  0
    1.8776    5.2725    4.8790 H   0  0  0  0  0  0  0  0  0  0  0  0
    1.4134    4.9493    3.2235 H   0  0  0  0  0  0  0  0  0  0  0  0
   -0.4327    5.8619    5.4756 H   0  0  0  0  0  0  0  0  0  0  0  0
    0.0420    6.7856    4.0793 H   0  0  0  0  0  0  0  0  0  0  0  0
   -0.3388    5.9316    2.0266 H   0  0  0  0  0  0  0  0  0  0  0  0
   -1.7953    4.8958    1.6877 H   0  0  0  0  0  0  0  0  0  0  0  0
   -1.8401    7.8073    2.4839 H   0  0  0  0  0  0  0  0  0  0  0  0
   -4.0966    5.8137    1.6194 H   0  0  0  0  0  0  0  0  0  0  0  0
   -4.3124    7.6055    1.9926 H   0  0  0  0  0  0  0  0  0  0  0  0
   -2.6378    8.2328    0.2479 H   0  0  0  0  0  0  0  0  0  0  0  0
   -2.3708    6.4954   -0.2101 H   0  0  0  0  0  0  0  0  0  0  0  0
   -2.4280    3.5412    3.2348 H   0  0  0  0  0  0  0  0  0  0  0  0
   -2.6912    2.6767    5.3862 H   0  0  0  0  0  0  0  0  0  0  0  0
   -2.8148    4.3501    5.6106 H   0  0  0  0  0  0  0  0  0  0  0  0
   -0.0594    3.0831    2.5790 H   0  0  0  0  0  0  0  0  0  0  0  0
   -0.6422    1.8999    3.7648 H   0  0  0  0  0  0  0  0  0  0  0  0
    3.1754    1.4289    2.6647 H   0  0  0  0  0  0  0  0  0  0  0  0
  1  2  1  0
  1 50  1  0
  2  7  2  0
  2  3  1  0
  3  4  2  0
  3 51  1  0
  4  5  1  0
  4 52  1  0
  5 48  1  0
  5  6  2  0
  6 39  1  0
  6  7  1  0
  7  8  1  0
  8  9  1  0
  9 10  1  0
  9 39  1  0
  9 53  1  6
 10 36  1  0
 10 11  1  0
 10 54  1  6
 11 37  1  0
 11 12  1  0
 11 55  1  1
 12 13  1  0
 12 56  1  0
 12 57  1  0
 13 17  1  0
 13 14  1  0
 13 58  1  1
 14 15  1  0
 14 59  1  0
 14 60  1  0
 15 38  1  0
 15 16  1  0
 15 61  1  6
 16 17  1  0
 16 62  1  0
 16 63  1  0
 17 18  1  0
 17 64  1  1
 18 19  1  0
 19 20  1  0
 19 65  1  0
 19 66  1  0
 20 21  1  0
 21 33  1  0
 21 22  1  0
 21 67  1  6
 22 23  1  0
 23 24  1  6
 23 31  1  0
 23 38  1  0
 24 30  1  0
 24 25  2  0
 25 26  1  0
 25 68  1  0
 26 27  2  0
 26 69  1  0
 27 28  1  0
 27 29  1  0
 29 30  2  0
 29 70  1  0
 30 71  1  0
 31 32  1  0
 33 32  1  6
 33 37  1  0
 33 34  1  0
 34 35  1  0
 34 72  1  0
 34 73  1  0
 35 36  1  0
 35 74  1  0
 35 75  1  0
 36 37  1  0
 36 93  1  6
 37 76  1  6
 39 49  1  0
 39 40  1  6
 40 41  1  0
 40 77  1  0
 40 78  1  0
 41 42  1  0
 41 79  1  0
 41 80  1  0
 42 43  1  0
 42 47  1  0
 43 44  1  0
 43 81  1  0
 43 82  1  0
 44 46  1  0
 44 45  1  0
 44 83  1  0
 45 46  1  0
 45 84  1  0
 45 85  1  0
 46 86  1  0
 46 87  1  0
 47 48  1  0
 47 49  1  0
 47 88  1  6
 48 89  1  0
 48 90  1  0
 49 91  1  0
 49 92  1  0
M  CHG  1  36   1
M  END
>  <i_m_ct_stereo_status>  (175) 
1

>  <s_m_source_file>  (175) 
/var/tmp/pbs.5083858.sched01/tmpvnyp8v7t/70kybzyij0.sdf

>  <i_m_source_file_index>  (175) 
3

>  <i_lp_mmshare_version>  (175) 
48012

>  <i_f3d_flags>  (175) 
0

>  <s_epik_input>  (175) 
W0NIMl0xW0NIMl1bQ0hdMVtDSDJdTihbQ0gyXVtDSDJdMilbQ0BASF0oW0NIMl0zKVtDSDJdYyhjNFtDQF0yMzUpW2NIXVtjSF1jKFtPSF0pYzRPW0NASF01W0NASF02TihbQ0gyXVtDSDJdNylbQ0BIXThbQ0BASF02W0NIMl1bQ0BASF0oW0NASF05T1tDSDJdT1tDQEhdMVtDQEBdMjc4KVtDSDJdW0NAQEhdKFtDSDJdOSlPW0NAQF0oTzEpKE9PMiljMVtjSF1bY0hdYyhDbClbY0hdW2NIXTE=

>  <s_epik_cmdline>  (175) 
J2VwaWtfcHl0aG9uJywgJy1waHQnLCAnMi4wJywgJy1waCcsICc3LjAnLCAnLXRuJywgJzgnLCAnLW1hJywgJzIwMCcsICctaW1hZScsICc8aW5maWxlLm1hZT4nLCAnLW9tYWUnLCAnPG91dGZpbGUubWFlPic=

>  <r_epik_Ionization_Penalty>  (175) 
2.32699

>  <r_epik_Ionization_Penalty_Charging>  (175) 
0.182315

>  <r_epik_Ionization_Penalty_Neutral>  (175) 
2.14467

>  <r_epik_State_Penalty>  (175) 
2.62464

>  <r_epik_Charging_Adjusted_Penalty>  (175) 
2.80695

>  <i_epik_Tot_Q>  (175) 
1

>  <i_epik_Tot_abs_Q>  (175) 
1

>  <s_epik_Chemistry_Notes>  (175) 
This compound contains an acetal/aminal-like group ( X-CH(R)-Y where X, Y are N, S, or O) that may be acid/base labile, releasing an aldehyde.

>  <s_lp_Force_Field>  (175) 
OPLS3e

>  <r_lp_Energy>  (175) 
123.156

>  <b_lp_Chiralities_Consistent>  (175) 
1

>  <s_lp_Variant>  (175) 
52:0-5

>  <s_i_glide_gridfile>  (175) 
pfpi4k_grid

>  <i_i_glide_lignum>  (175) 
3

>  <i_i_glide_rotatable_bonds>  (175) 
5

>  <r_i_docking_score>  (175) 
-2.16996

>  <r_i_glide_ligand_efficiency>  (175) 
-0.044285

>  <r_i_glide_ligand_efficiency_sa>  (175) 
-0.162052

>  <r_i_glide_ligand_efficiency_ln>  (175) 
-0.44359

>  <r_i_glide_gscore>  (175) 
-2.16996

>  <r_i_glide_lipo>  (175) 
-0.173743

>  <r_i_glide_hbond>  (175) 
-0.149532

>  <r_i_glide_metal>  (175) 
-0

>  <r_i_glide_rewards>  (175) 
-0.024548

>  <r_i_glide_evdw>  (175) 
-2.70903

>  <r_i_glide_ecoul>  (175) 
-11.2804

>  <r_i_glide_erotb>  (175) 
0.00695412

>  <r_i_glide_esite>  (175) 
-0.0015848

>  <r_i_glide_emodel>  (175) 
-12.4624

>  <r_i_glide_energy>  (175) 
-13.9894

>  <r_i_glide_einternal>  (175) 
5.22429

>  <r_i_glide_intrahb_reward>  (175) 
-0

>  <i_i_glide_confnum>  (175) 
5

>  <i_i_glide_posenum>  (175) 
26

>  <r_i_glide_eff_state_penalty>  (175) 
0

>  <ligand_id>  (175) 
52

>  <original_smiles>  (175) 
Oc1ccc2c3c1OC(C1C4CC5CC6CC5OCOC5OC(c7ccc(Cl)cc7)(OOC57CCN1C47)O6)C31CCN(CC3CC3)C(C2)C1

>  <smiles>  (175) 
[H]Oc1c([H])c([H])c2c3c1OC([H])(C1([H])C4([H])C([H])([H])C5([H])C([H])([H])C6([H])OC7(c8c([H])c([H])c(Cl)c([H])c8[H])OOC8(C([H])(OC([H])([H])OC5([H])C6([H])[H])O7)C([H])([H])C([H])([H])[N+]1([H])C48[H])C31C([H])([H])C([H])([H])N(C([H])([H])C3([H])C([H])([H])C3([H])[H])C([H])(C2([H])[H])C1([H])[H]

$$$$
52:4:1
     RDKit          3D

 93104  0  0  1  0  0  0  0  0999 V2000
    4.3550    3.6730    6.4625 O   0  0  0  0  0  0  0  0  0  0  0  0
    2.9861    3.6900    6.4802 C   0  0  0  0  0  0  0  0  0  0  0  0
    2.3035    4.4431    7.4801 C   0  0  0  0  0  0  0  0  0  0  0  0
    0.8921    4.4455    7.5560 C   0  0  0  0  0  0  0  0  0  0  0  0
    0.1475    3.7606    6.5763 C   0  0  0  0  0  0  0  0  0  0  0  0
    0.8837    3.0795    5.5861 C   0  0  0  0  0  0  0  0  0  0  0  0
    2.2526    2.9441    5.5240 C   0  0  0  0  0  0  0  0  0  0  0  0
    2.6687    2.0729    4.5537 O   0  0  0  0  0  0  0  0  0  0  0  0
    1.5053    1.3744    4.0459 C   0  0  1  0  0  0  0  0  0  0  0  0
    1.5051   -0.0405    4.7069 C   0  0  2  0  0  0  0  0  0  0  0  0
    2.6549   -1.0112    4.4062 C   0  0  1  0  0  0  0  0  0  0  0  0
    3.9095   -1.0290    5.3288 C   0  0  0  0  0  0  0  0  0  0  0  0
    5.0899   -2.0273    5.0763 C   0  0  2  0  0  0  0  0  0  0  0  0
    5.1484   -2.7800    3.7275 C   0  0  0  0  0  0  0  0  0  0  0  0
    4.7544   -4.2312    4.0392 C   0  0  1  0  0  0  0  0  0  0  0  0
    5.3062   -4.4929    5.4526 C   0  0  0  0  0  0  0  0  0  0  0  0
    5.4270   -3.1171    6.1358 C   0  0  2  0  0  0  0  0  0  0  0  0
    4.8686   -2.9708    7.4469 O   0  0  0  0  0  0  0  0  0  0  0  0
    3.6084   -3.5098    7.7012 C   0  0  0  0  0  0  0  0  0  0  0  0
    2.6723   -2.9881    6.8186 O   0  0  0  0  0  0  0  0  0  0  0  0
    1.7749   -3.8816    6.2880 C   0  0  2  0  0  0  0  0  0  0  0  0
    2.3540   -5.0785    5.8100 O   0  0  0  0  0  0  0  0  0  0  0  0
    2.5091   -5.1988    4.4226 C   0  0  1  0  0  0  0  0  0  0  0  0
    3.0582   -6.6062    4.1101 C   0  0  0  0  0  0  0  0  0  0  0  0
    3.3675   -7.5382    5.1307 C   0  0  0  0  0  0  0  0  0  0  0  0
    3.8779   -8.8121    4.8068 C   0  0  0  0  0  0  0  0  0  0  0  0
    4.0903   -9.1718    3.4657 C   0  0  0  0  0  0  0  0  0  0  0  0
    4.7374  -10.7260    3.0839 Cl  0  0  0  0  0  0  0  0  0  0  0  0
    3.7846   -8.2531    2.4481 C   0  0  0  0  0  0  0  0  0  0  0  0
    3.2751   -6.9796    2.7689 C   0  0  0  0  0  0  0  0  0  0  0  0
    1.2753   -5.0794    3.7543 O   0  0  0  0  0  0  0  0  0  0  0  0
    0.2940   -4.2091    4.4985 O   0  0  0  0  0  0  0  0  0  0  0  0
    0.9428   -3.1534    5.2007 C   0  0  1  0  0  0  0  0  0  0  0  0
   -0.1870   -2.3838    5.8578 C   0  0  0  0  0  0  0  0  0  0  0  0
   -0.6476   -1.4000    4.7907 C   0  0  0  0  0  0  0  0  0  0  0  0
    0.6028   -1.0213    4.0637 N   0  0  2  0  0  0  0  0  0  0  0  0
    1.5928   -2.1248    4.1823 C   0  0  1  0  0  0  0  0  0  0  0  0
    3.3466   -4.2125    3.9037 O   0  0  0  0  0  0  0  0  0  0  0  0
    0.3201    2.3470    4.4110 C   0  0  2  0  0  0  0  0  0  0  0  0
    0.0611    3.3201    3.2514 C   0  0  0  0  0  0  0  0  0  0  0  0
   -0.9177    4.4511    3.6204 C   0  0  0  0  0  0  0  0  0  0  0  0
   -2.1788    3.9526    4.1814 N   0  0  0  0  0  0  0  0  0  0  0  0
   -3.0990    3.4820    3.1480 C   0  0  0  0  0  0  0  0  0  0  0  0
   -3.7845    4.6453    2.4413 C   0  0  0  0  0  0  0  0  0  0  0  0
   -5.2921    4.8346    2.4628 C   0  0  0  0  0  0  0  0  0  0  0  0
   -4.6239    4.3444    1.2363 C   0  0  0  0  0  0  0  0  0  0  0  0
   -1.9675    2.9488    5.2469 C   0  0  2  0  0  0  0  0  0  0  0  0
   -1.3683    3.5914    6.5238 C   0  0  0  0  0  0  0  0  0  0  0  0
   -1.0476    1.7858    4.7978 C   0  0  0  0  0  0  0  0  0  0  0  0
    4.7335    4.1701    7.1708 H   0  0  0  0  0  0  0  0  0  0  0  0
    2.8560    5.0053    8.2119 H   0  0  0  0  0  0  0  0  0  0  0  0
    0.3739    4.9821    8.3571 H   0  0  0  0  0  0  0  0  0  0  0  0
    1.6352    1.2874    2.9514 H   0  0  0  0  0  0  0  0  0  0  0  0
    1.3504   -0.0080    5.7872 H   0  0  0  0  0  0  0  0  0  0  0  0
    2.9860   -0.7551    3.4081 H   0  0  0  0  0  0  0  0  0  0  0  0
    4.3605   -0.0394    5.2134 H   0  0  0  0  0  0  0  0  0  0  0  0
    3.6407   -0.9878    6.3789 H   0  0  0  0  0  0  0  0  0  0  0  0
    5.9425   -1.3527    5.0974 H   0  0  0  0  0  0  0  0  0  0  0  0
    4.5586   -2.3340    2.9267 H   0  0  0  0  0  0  0  0  0  0  0  0
    6.1686   -2.7753    3.3541 H   0  0  0  0  0  0  0  0  0  0  0  0
    5.1765   -4.9260    3.3133 H   0  0  0  0  0  0  0  0  0  0  0  0
    4.7546   -5.2456    6.0087 H   0  0  0  0  0  0  0  0  0  0  0  0
    6.3010   -4.9210    5.3560 H   0  0  0  0  0  0  0  0  0  0  0  0
    6.4984   -3.0077    6.3307 H   0  0  0  0  0  0  0  0  0  0  0  0
    3.6602   -4.5973    7.7344 H   0  0  0  0  0  0  0  0  0  0  0  0
    3.3450   -3.1934    8.7091 H   0  0  0  0  0  0  0  0  0  0  0  0
    1.1228   -4.2110    7.1006 H   0  0  0  0  0  0  0  0  0  0  0  0
    3.2169   -7.3017    6.1783 H   0  0  0  0  0  0  0  0  0  0  0  0
    4.1078   -9.5250    5.5892 H   0  0  0  0  0  0  0  0  0  0  0  0
    3.9449   -8.5325    1.4135 H   0  0  0  0  0  0  0  0  0  0  0  0
    3.0480   -6.2809    1.9701 H   0  0  0  0  0  0  0  0  0  0  0  0
   -1.0023   -3.0216    6.1882 H   0  0  0  0  0  0  0  0  0  0  0  0
    0.1776   -1.8239    6.7124 H   0  0  0  0  0  0  0  0  0  0  0  0
   -1.2604   -1.9501    4.0836 H   0  0  0  0  0  0  0  0  0  0  0  0
   -1.2524   -0.6266    5.2259 H   0  0  0  0  0  0  0  0  0  0  0  0
    1.7106   -2.5315    3.1806 H   0  0  0  0  0  0  0  0  0  0  0  0
    0.9906    3.7640    2.9019 H   0  0  0  0  0  0  0  0  0  0  0  0
   -0.3292    2.7486    2.4129 H   0  0  0  0  0  0  0  0  0  0  0  0
   -0.4375    5.1147    4.3449 H   0  0  0  0  0  0  0  0  0  0  0  0
   -1.1147    5.0564    2.7349 H   0  0  0  0  0  0  0  0  0  0  0  0
   -2.5788    2.8490    2.4166 H   0  0  0  0  0  0  0  0  0  0  0  0
   -3.8794    2.8697    3.5882 H   0  0  0  0  0  0  0  0  0  0  0  0
   -3.1969    5.5519    2.3494 H   0  0  0  0  0  0  0  0  0  0  0  0
   -5.8813    4.1279    3.0591 H   0  0  0  0  0  0  0  0  0  0  0  0
   -5.6746    5.8553    2.4805 H   0  0  0  0  0  0  0  0  0  0  0  0
   -4.5850    5.0514    0.4134 H   0  0  0  0  0  0  0  0  0  0  0  0
   -4.7560    3.3007    0.9612 H   0  0  0  0  0  0  0  0  0  0  0  0
   -2.9408    2.5408    5.5106 H   0  0  0  0  0  0  0  0  0  0  0  0
   -1.6463    2.9629    7.3623 H   0  0  0  0  0  0  0  0  0  0  0  0
   -1.8296    4.5423    6.7149 H   0  0  0  0  0  0  0  0  0  0  0  0
   -1.4932    1.2402    3.9694 H   0  0  0  0  0  0  0  0  0  0  0  0
   -0.9162    1.1307    5.6408 H   0  0  0  0  0  0  0  0  0  0  0  0
    0.4683   -0.7468    3.0868 H   0  0  0  0  0  0  0  0  0  0  0  0
  1  2  1  0
  1 50  1  0
  2  7  2  0
  2  3  1  0
  3  4  2  0
  3 51  1  0
  4  5  1  0
  4 52  1  0
  5 48  1  0
  5  6  2  0
  6 39  1  0
  6  7  1  0
  7  8  1  0
  8  9  1  0
  9 10  1  0
  9 39  1  0
  9 53  1  6
 10 36  1  0
 10 11  1  0
 10 54  1  1
 11 37  1  0
 11 12  1  0
 11 55  1  6
 12 13  1  0
 12 56  1  0
 12 57  1  0
 13 17  1  0
 13 14  1  0
 13 58  1  6
 14 15  1  0
 14 59  1  0
 14 60  1  0
 15 38  1  0
 15 16  1  0
 15 61  1  6
 16 17  1  0
 16 62  1  0
 16 63  1  0
 17 18  1  0
 17 64  1  1
 18 19  1  0
 19 20  1  0
 19 65  1  0
 19 66  1  0
 20 21  1  0
 21 33  1  0
 21 22  1  0
 21 67  1  1
 22 23  1  0
 23 24  1  1
 23 31  1  0
 23 38  1  0
 24 30  1  0
 24 25  2  0
 25 26  1  0
 25 68  1  0
 26 27  2  0
 26 69  1  0
 27 28  1  0
 27 29  1  0
 29 30  2  0
 29 70  1  0
 30 71  1  0
 31 32  1  0
 33 32  1  6
 33 37  1  0
 33 34  1  0
 34 35  1  0
 34 72  1  0
 34 73  1  0
 35 36  1  0
 35 74  1  0
 35 75  1  0
 36 37  1  0
 36 93  1  6
 37 76  1  6
 39 49  1  0
 39 40  1  6
 40 41  1  0
 40 77  1  0
 40 78  1  0
 41 42  1  0
 41 79  1  0
 41 80  1  0
 42 43  1  0
 42 47  1  0
 43 44  1  0
 43 81  1  0
 43 82  1  0
 44 46  1  0
 44 45  1  0
 44 83  1  0
 45 46  1  0
 45 84  1  0
 45 85  1  0
 46 86  1  0
 46 87  1  0
 47 48  1  0
 47 49  1  0
 47 88  1  1
 48 89  1  0
 48 90  1  0
 49 91  1  0
 49 92  1  0
M  CHG  1  36   1
M  END
>  <i_m_ct_stereo_status>  (176) 
1

>  <s_m_source_file>  (176) 
/var/tmp/pbs.5083858.sched01/tmpvnyp8v7t/70kybzyij0.sdf

>  <i_m_source_file_index>  (176) 
3

>  <i_lp_mmshare_version>  (176) 
48012

>  <i_f3d_flags>  (176) 
0

>  <s_epik_input>  (176) 
W0NIMl0xW0NIMl1bQ0hdMVtDSDJdTihbQ0gyXVtDSDJdMilbQ0BASF0oW0NIMl0zKVtDSDJdYyhjNFtDQF0yMzUpW2NIXVtjSF1jKFtPSF0pYzRPW0NASF01W0NASF02TihbQ0gyXVtDSDJdNylbQ0BIXThbQ0BASF02W0NIMl1bQ0BASF0oW0NASF05T1tDSDJdT1tDQEhdMVtDQEBdMjc4KVtDSDJdW0NAQEhdKFtDSDJdOSlPW0NAQF0oTzEpKE9PMiljMVtjSF1bY0hdYyhDbClbY0hdW2NIXTE=

>  <s_epik_cmdline>  (176) 
J2VwaWtfcHl0aG9uJywgJy1waHQnLCAnMi4wJywgJy1waCcsICc3LjAnLCAnLXRuJywgJzgnLCAnLW1hJywgJzIwMCcsICctaW1hZScsICc8aW5maWxlLm1hZT4nLCAnLW9tYWUnLCAnPG91dGZpbGUubWFlPic=

>  <r_epik_Ionization_Penalty>  (176) 
2.32699

>  <r_epik_Ionization_Penalty_Charging>  (176) 
0.182315

>  <r_epik_Ionization_Penalty_Neutral>  (176) 
2.14467

>  <r_epik_State_Penalty>  (176) 
2.62464

>  <r_epik_Charging_Adjusted_Penalty>  (176) 
2.80695

>  <i_epik_Tot_Q>  (176) 
1

>  <i_epik_Tot_abs_Q>  (176) 
1

>  <s_epik_Chemistry_Notes>  (176) 
This compound contains an acetal/aminal-like group ( X-CH(R)-Y where X, Y are N, S, or O) that may be acid/base labile, releasing an aldehyde.

>  <s_lp_Force_Field>  (176) 
OPLS3e

>  <r_lp_Energy>  (176) 
123.156

>  <b_lp_Chiralities_Consistent>  (176) 
1

>  <s_lp_Variant>  (176) 
52:0-5

>  <s_i_glide_gridfile>  (176) 
pfpi4k_grid

>  <i_i_glide_lignum>  (176) 
3

>  <i_i_glide_rotatable_bonds>  (176) 
5

>  <r_i_docking_score>  (176) 
-2.0472

>  <r_i_glide_ligand_efficiency>  (176) 
-0.0417796

>  <r_i_glide_ligand_efficiency_sa>  (176) 
-0.152884

>  <r_i_glide_ligand_efficiency_ln>  (176) 
-0.418495

>  <r_i_glide_gscore>  (176) 
-2.0472

>  <r_i_glide_lipo>  (176) 
-0.350391

>  <r_i_glide_hbond>  (176) 
-0.0101903

>  <r_i_glide_metal>  (176) 
-0

>  <r_i_glide_rewards>  (176) 
0

>  <r_i_glide_evdw>  (176) 
-24.4726

>  <r_i_glide_ecoul>  (176) 
-3.08279

>  <r_i_glide_erotb>  (176) 
0.00695412

>  <r_i_glide_esite>  (176) 
-0.00752657

>  <r_i_glide_emodel>  (176) 
-28.3891

>  <r_i_glide_energy>  (176) 
-27.5554

>  <r_i_glide_einternal>  (176) 
1.23891

>  <r_i_glide_intrahb_reward>  (176) 
-0

>  <i_i_glide_confnum>  (176) 
1

>  <i_i_glide_posenum>  (176) 
25

>  <r_i_glide_eff_state_penalty>  (176) 
0

>  <ligand_id>  (176) 
52

>  <original_smiles>  (176) 
Oc1ccc2c3c1OC(C1C4CC5CC6CC5OCOC5OC(c7ccc(Cl)cc7)(OOC57CCN1C47)O6)C31CCN(CC3CC3)C(C2)C1

>  <smiles>  (176) 
[H]Oc1c([H])c([H])c2c3c1OC([H])(C1([H])C4([H])C([H])([H])C5([H])C([H])([H])C6([H])OC7(c8c([H])c([H])c(Cl)c([H])c8[H])OOC8(C([H])(OC([H])([H])OC5([H])C6([H])[H])O7)C([H])([H])C([H])([H])[N+]1([H])C48[H])C31C([H])([H])C([H])([H])N(C([H])([H])C3([H])C([H])([H])C3([H])[H])C([H])(C2([H])[H])C1([H])[H]

$$$$
52:4:2
     RDKit          3D

 93104  0  0  1  0  0  0  0  0999 V2000
    3.7038    3.8507    7.6671 O   0  0  0  0  0  0  0  0  0  0  0  0
    2.3862    3.7849    7.3402 C   0  0  0  0  0  0  0  0  0  0  0  0
    1.4457    4.3111    8.2653 C   0  0  0  0  0  0  0  0  0  0  0  0
    0.0470    4.2063    8.0606 C   0  0  0  0  0  0  0  0  0  0  0  0
   -0.3936    3.6608    6.8382 C   0  0  0  0  0  0  0  0  0  0  0  0
    0.5939    3.2415    5.9210 C   0  0  0  0  0  0  0  0  0  0  0  0
    1.9449    3.1734    6.1355 C   0  0  0  0  0  0  0  0  0  0  0  0
    2.6258    2.4978    5.1332 O   0  0  0  0  0  0  0  0  0  0  0  0
    1.6507    1.8695    4.2771 C   0  0  1  0  0  0  0  0  0  0  0  0
    1.6715    0.3548    4.7083 C   0  0  2  0  0  0  0  0  0  0  0  0
    2.8734   -0.5229    4.3370 C   0  0  1  0  0  0  0  0  0  0  0  0
    4.0696   -0.6583    5.3116 C   0  0  0  0  0  0  0  0  0  0  0  0
    5.2969   -1.5619    4.9591 C   0  0  2  0  0  0  0  0  0  0  0  0
    5.3967   -2.0789    3.4989 C   0  0  0  0  0  0  0  0  0  0  0  0
    5.0933   -3.5794    3.5459 C   0  0  1  0  0  0  0  0  0  0  0  0
    5.5717   -4.0591    4.9291 C   0  0  0  0  0  0  0  0  0  0  0  0
    5.6093   -2.8177    5.8426 C   0  0  2  0  0  0  0  0  0  0  0  0
    4.9634   -2.9204    7.1188 O   0  0  0  0  0  0  0  0  0  0  0  0
    3.7158   -3.5273    7.1917 C   0  0  0  0  0  0  0  0  0  0  0  0
    2.8153   -2.8886    6.3507 O   0  0  0  0  0  0  0  0  0  0  0  0
    1.9976   -3.7115    5.6182 C   0  0  2  0  0  0  0  0  0  0  0  0
    2.6510   -4.7751    4.9978 O   0  0  0  0  0  0  0  0  0  0  0  0
    2.8741   -4.6479    3.6168 C   0  0  1  0  0  0  0  0  0  0  0  0
    3.5010   -5.9622    3.0998 C   0  0  0  0  0  0  0  0  0  0  0  0
    3.7905   -7.0545    3.9638 C   0  0  0  0  0  0  0  0  0  0  0  0
    4.3637   -8.2367    3.4549 C   0  0  0  0  0  0  0  0  0  0  0  0
    4.6755   -8.3457    2.0866 C   0  0  0  0  0  0  0  0  0  0  0  0
    5.4690   -9.7754    1.4875 Cl  0  0  0  0  0  0  0  0  0  0  0  0
    4.3794   -7.2746    1.2182 C   0  0  0  0  0  0  0  0  0  0  0  0
    3.8052   -6.0888    1.7228 C   0  0  0  0  0  0  0  0  0  0  0  0
    1.6799   -4.4457    2.8948 O   0  0  0  0  0  0  0  0  0  0  0  0
    0.6330   -3.7462    3.7097 O   0  0  0  0  0  0  0  0  0  0  0  0
    1.2236   -2.8362    4.6157 C   0  0  1  0  0  0  0  0  0  0  0  0
    0.0327   -2.2373    5.3321 C   0  0  0  0  0  0  0  0  0  0  0  0
   -0.4184   -1.0879    4.4958 C   0  0  0  0  0  0  0  0  0  0  0  0
    0.8492   -0.5333    3.8450 N   0  0  2  0  0  0  0  0  0  0  0  0
    1.8932   -1.6159    3.8520 C   0  0  1  0  0  0  0  0  0  0  0  0
    3.7012   -3.5790    3.3133 O   0  0  0  0  0  0  0  0  0  0  0  0
    0.3467    2.7055    4.5427 C   0  0  2  0  0  0  0  0  0  0  0  0
    0.2380    3.8373    3.5136 C   0  0  0  0  0  0  0  0  0  0  0  0
   -0.8952    4.8273    3.8490 C   0  0  0  0  0  0  0  0  0  0  0  0
   -2.1872    4.1625    4.0589 N   0  0  0  0  0  0  0  0  0  0  0  0
   -2.8663    3.8178    2.8020 C   0  0  0  0  0  0  0  0  0  0  0  0
   -3.7741    4.9485    2.3459 C   0  0  0  0  0  0  0  0  0  0  0  0
   -5.2828    4.8779    2.4772 C   0  0  0  0  0  0  0  0  0  0  0  0
   -4.6353    4.7259    1.1418 C   0  0  0  0  0  0  0  0  0  0  0  0
   -2.0888    3.0021    4.9468 C   0  0  2  0  0  0  0  0  0  0  0  0
   -1.8442    3.3983    6.4227 C   0  0  0  0  0  0  0  0  0  0  0  0
   -1.0043    1.9909    4.5381 C   0  0  0  0  0  0  0  0  0  0  0  0
    4.1527    3.0327    7.5083 H   0  0  0  0  0  0  0  0  0  0  0  0
    1.7952    4.7603    9.1923 H   0  0  0  0  0  0  0  0  0  0  0  0
   -0.6697    4.5540    8.8066 H   0  0  0  0  0  0  0  0  0  0  0  0
    2.0208    1.9789    3.2462 H   0  0  0  0  0  0  0  0  0  0  0  0
    1.4358    0.1853    5.7566 H   0  0  0  0  0  0  0  0  0  0  0  0
    3.2319   -0.0887    3.4127 H   0  0  0  0  0  0  0  0  0  0  0  0
    4.4854    0.3389    5.3973 H   0  0  0  0  0  0  0  0  0  0  0  0
    3.7317   -0.8165    6.3254 H   0  0  0  0  0  0  0  0  0  0  0  0
    6.1447   -0.8911    5.1412 H   0  0  0  0  0  0  0  0  0  0  0  0
    4.8507   -1.5031    2.7520 H   0  0  0  0  0  0  0  0  0  0  0  0
    6.3781   -1.9606    3.0771 H   0  0  0  0  0  0  0  0  0  0  0  0
    5.5928   -4.1117    2.7383 H   0  0  0  0  0  0  0  0  0  0  0  0
    5.0206   -4.9114    5.3066 H   0  0  0  0  0  0  0  0  0  0  0  0
    6.5824   -4.4589    4.8518 H   0  0  0  0  0  0  0  0  0  0  0  0
    6.6637   -2.7202    6.1216 H   0  0  0  0  0  0  0  0  0  0  0  0
    3.8077   -4.6057    7.0426 H   0  0  0  0  0  0  0  0  0  0  0  0
    3.3873   -3.4007    8.2217 H   0  0  0  0  0  0  0  0  0  0  0  0
    1.2980   -4.1821    6.3189 H   0  0  0  0  0  0  0  0  0  0  0  0
    3.5689   -7.0045    5.0231 H   0  0  0  0  0  0  0  0  0  0  0  0
    4.5829   -9.0667    4.1151 H   0  0  0  0  0  0  0  0  0  0  0  0
    4.6116   -7.3680    0.1658 H   0  0  0  0  0  0  0  0  0  0  0  0
    3.5960   -5.2736    1.0396 H   0  0  0  0  0  0  0  0  0  0  0  0
   -0.7984   -2.9228    5.4861 H   0  0  0  0  0  0  0  0  0  0  0  0
    0.2959   -1.8017    6.2863 H   0  0  0  0  0  0  0  0  0  0  0  0
   -0.9732   -1.5098    3.6892 H   0  0  0  0  0  0  0  0  0  0  0  0
   -1.1392   -0.4893    5.0196 H   0  0  0  0  0  0  0  0  0  0  0  0
    2.0574   -1.8189    2.7836 H   0  0  0  0  0  0  0  0  0  0  0  0
    1.1786    4.3948    3.4296 H   0  0  0  0  0  0  0  0  0  0  0  0
    0.0712    3.3209    2.5674 H   0  0  0  0  0  0  0  0  0  0  0  0
   -0.6488    5.3559    4.7740 H   0  0  0  0  0  0  0  0  0  0  0  0
   -1.0134    5.5462    3.0496 H   0  0  0  0  0  0  0  0  0  0  0  0
   -2.1003    3.5835    2.0668 H   0  0  0  0  0  0  0  0  0  0  0  0
   -3.4843    2.9223    2.8917 H   0  0  0  0  0  0  0  0  0  0  0  0
   -3.3226    5.9223    2.3709 H   0  0  0  0  0  0  0  0  0  0  0  0
   -5.6964    3.9847    2.9258 H   0  0  0  0  0  0  0  0  0  0  0  0
   -5.8368    5.7961    2.6479 H   0  0  0  0  0  0  0  0  0  0  0  0
   -4.7764    5.5367    0.4241 H   0  0  0  0  0  0  0  0  0  0  0  0
   -4.6694    3.7164    0.7641 H   0  0  0  0  0  0  0  0  0  0  0  0
   -3.0452    2.4773    4.9246 H   0  0  0  0  0  0  0  0  0  0  0  0
   -2.2246    2.6107    7.0665 H   0  0  0  0  0  0  0  0  0  0  0  0
   -2.4586    4.2363    6.6969 H   0  0  0  0  0  0  0  0  0  0  0  0
   -1.2378    1.5466    3.5594 H   0  0  0  0  0  0  0  0  0  0  0  0
   -0.9850    1.2904    5.3563 H   0  0  0  0  0  0  0  0  0  0  0  0
    0.7472   -0.0933    2.9333 H   0  0  0  0  0  0  0  0  0  0  0  0
  1  2  1  0
  1 50  1  0
  2  7  2  0
  2  3  1  0
  3  4  2  0
  3 51  1  0
  4  5  1  0
  4 52  1  0
  5 48  1  0
  5  6  2  0
  6 39  1  0
  6  7  1  0
  7  8  1  0
  8  9  1  0
  9 10  1  0
  9 39  1  0
  9 53  1  6
 10 36  1  0
 10 11  1  0
 10 54  1  1
 11 37  1  0
 11 12  1  0
 11 55  1  6
 12 13  1  0
 12 56  1  0
 12 57  1  0
 13 17  1  0
 13 14  1  0
 13 58  1  6
 14 15  1  0
 14 59  1  0
 14 60  1  0
 15 38  1  0
 15 16  1  0
 15 61  1  6
 16 17  1  0
 16 62  1  0
 16 63  1  0
 17 18  1  0
 17 64  1  1
 18 19  1  0
 19 20  1  0
 19 65  1  0
 19 66  1  0
 20 21  1  0
 21 33  1  0
 21 22  1  0
 21 67  1  1
 22 23  1  0
 23 24  1  6
 23 31  1  0
 23 38  1  0
 24 30  1  0
 24 25  2  0
 25 26  1  0
 25 68  1  0
 26 27  2  0
 26 69  1  0
 27 28  1  0
 27 29  1  0
 29 30  2  0
 29 70  1  0
 30 71  1  0
 31 32  1  0
 33 32  1  6
 33 37  1  0
 33 34  1  0
 34 35  1  0
 34 72  1  0
 34 73  1  0
 35 36  1  0
 35 74  1  0
 35 75  1  0
 36 37  1  0
 36 93  1  6
 37 76  1  6
 39 49  1  0
 39 40  1  6
 40 41  1  0
 40 77  1  0
 40 78  1  0
 41 42  1  0
 41 79  1  0
 41 80  1  0
 42 43  1  0
 42 47  1  0
 43 44  1  0
 43 81  1  0
 43 82  1  0
 44 46  1  0
 44 45  1  0
 44 83  1  0
 45 46  1  0
 45 84  1  0
 45 85  1  0
 46 86  1  0
 46 87  1  0
 47 48  1  0
 47 49  1  0
 47 88  1  1
 48 89  1  0
 48 90  1  0
 49 91  1  0
 49 92  1  0
M  CHG  1  36   1
M  END
>  <i_m_ct_stereo_status>  (177) 
1

>  <s_m_source_file>  (177) 
/var/tmp/pbs.5083858.sched01/tmpvnyp8v7t/70kybzyij0.sdf

>  <i_m_source_file_index>  (177) 
3

>  <i_lp_mmshare_version>  (177) 
48012

>  <i_f3d_flags>  (177) 
0

>  <s_epik_input>  (177) 
W0NIMl0xW0NIMl1bQ0hdMVtDSDJdTihbQ0gyXVtDSDJdMilbQ0BASF0oW0NIMl0zKVtDSDJdYyhjNFtDQF0yMzUpW2NIXVtjSF1jKFtPSF0pYzRPW0NASF01W0NASF02TihbQ0gyXVtDSDJdNylbQ0BIXThbQ0BASF02W0NIMl1bQ0BASF0oW0NASF05T1tDSDJdT1tDQEhdMVtDQEBdMjc4KVtDSDJdW0NAQEhdKFtDSDJdOSlPW0NAQF0oTzEpKE9PMiljMVtjSF1bY0hdYyhDbClbY0hdW2NIXTE=

>  <s_epik_cmdline>  (177) 
J2VwaWtfcHl0aG9uJywgJy1waHQnLCAnMi4wJywgJy1waCcsICc3LjAnLCAnLXRuJywgJzgnLCAnLW1hJywgJzIwMCcsICctaW1hZScsICc8aW5maWxlLm1hZT4nLCAnLW9tYWUnLCAnPG91dGZpbGUubWFlPic=

>  <r_epik_Ionization_Penalty>  (177) 
2.32699

>  <r_epik_Ionization_Penalty_Charging>  (177) 
0.182315

>  <r_epik_Ionization_Penalty_Neutral>  (177) 
2.14467

>  <r_epik_State_Penalty>  (177) 
2.62464

>  <r_epik_Charging_Adjusted_Penalty>  (177) 
2.80695

>  <i_epik_Tot_Q>  (177) 
1

>  <i_epik_Tot_abs_Q>  (177) 
1

>  <s_epik_Chemistry_Notes>  (177) 
This compound contains an acetal/aminal-like group ( X-CH(R)-Y where X, Y are N, S, or O) that may be acid/base labile, releasing an aldehyde.

>  <s_lp_Force_Field>  (177) 
OPLS3e

>  <r_lp_Energy>  (177) 
123.156

>  <b_lp_Chiralities_Consistent>  (177) 
1

>  <s_lp_Variant>  (177) 
52:0-5

>  <s_i_glide_gridfile>  (177) 
pfpi4k_grid

>  <i_i_glide_lignum>  (177) 
3

>  <i_i_glide_rotatable_bonds>  (177) 
5

>  <r_i_docking_score>  (177) 
-1.99118

>  <r_i_glide_ligand_efficiency>  (177) 
-0.0406364

>  <r_i_glide_ligand_efficiency_sa>  (177) 
-0.148701

>  <r_i_glide_ligand_efficiency_ln>  (177) 
-0.407043

>  <r_i_glide_gscore>  (177) 
-1.99118

>  <r_i_glide_lipo>  (177) 
-0.528754

>  <r_i_glide_hbond>  (177) 
-0.0826042

>  <r_i_glide_metal>  (177) 
-0

>  <r_i_glide_rewards>  (177) 
0

>  <r_i_glide_evdw>  (177) 
-19.9997

>  <r_i_glide_ecoul>  (177) 
-3.47295

>  <r_i_glide_erotb>  (177) 
0.00695412

>  <r_i_glide_esite>  (177) 
-0.00858503

>  <r_i_glide_emodel>  (177) 
-19.545

>  <r_i_glide_energy>  (177) 
-23.4727

>  <r_i_glide_einternal>  (177) 
4.80122

>  <r_i_glide_intrahb_reward>  (177) 
-0

>  <i_i_glide_confnum>  (177) 
1

>  <i_i_glide_posenum>  (177) 
15

>  <r_i_glide_eff_state_penalty>  (177) 
0

>  <ligand_id>  (177) 
52

>  <original_smiles>  (177) 
Oc1ccc2c3c1OC(C1C4CC5CC6CC5OCOC5OC(c7ccc(Cl)cc7)(OOC57CCN1C47)O6)C31CCN(CC3CC3)C(C2)C1

>  <smiles>  (177) 
[H]Oc1c([H])c([H])c2c3c1OC([H])(C1([H])C4([H])C([H])([H])C5([H])C([H])([H])C6([H])OC7(c8c([H])c([H])c(Cl)c([H])c8[H])OOC8(C([H])(OC([H])([H])OC5([H])C6([H])[H])O7)C([H])([H])C([H])([H])[N+]1([H])C48[H])C31C([H])([H])C([H])([H])N(C([H])([H])C3([H])C([H])([H])C3([H])[H])C([H])(C2([H])[H])C1([H])[H]

$$$$
54:0:0
     RDKit          3D

 72 76  0  0  1  0  0  0  0  0999 V2000
   -1.3974   -7.8866    4.4391 C   0  0  0  0  0  0  0  0  0  0  0  0
   -0.2059   -7.4324    3.9702 C   0  0  0  0  0  0  0  0  0  0  0  0
    0.8801   -8.2519    3.3495 C   0  0  0  0  0  0  0  0  0  0  0  0
    1.8829   -7.1508    2.8947 C   0  0  2  0  0  0  0  0  0  0  0  0
    2.8111   -7.7194    1.8212 C   0  0  0  0  0  0  0  0  0  0  0  0
    4.0595   -6.8843    1.5798 C   0  0  0  0  0  0  0  0  0  0  0  0
    4.8808   -6.5974    2.8788 C   0  0  1  0  0  0  0  0  0  0  0  0
    6.3117   -5.9753    2.5616 C   0  0  0  0  0  0  0  0  0  0  0  0
    7.2740   -6.0455    3.7767 C   0  0  0  0  0  0  0  0  0  0  0  0
    7.0474   -6.7689    1.4585 C   0  0  0  0  0  0  0  0  0  0  0  0
    6.1866   -4.4890    2.1260 C   0  0  1  0  0  0  0  0  0  0  0  0
    5.5836   -4.4264    0.8147 O   0  0  0  0  0  0  0  0  0  0  0  0
    6.2190   -3.5498   -0.0979 C   0  0  2  0  0  0  0  0  0  0  0  0
    6.2602   -2.2236    0.3688 O   0  0  0  0  0  0  0  0  0  0  0  0
    4.9689   -1.6394    0.6032 C   0  0  1  0  0  0  0  0  0  0  0  0
    5.2023   -0.2916    1.3347 C   0  0  0  0  0  0  0  0  0  0  0  0
    3.9561    0.2356    1.7648 O   0  0  0  0  0  0  0  0  0  0  0  0
    4.2157   -1.5391   -0.7374 C   0  0  1  0  0  0  0  0  0  0  0  0
    4.7978   -0.5801   -1.6107 O   0  0  0  0  0  0  0  0  0  0  0  0
    4.1438   -2.9324   -1.3796 C   0  0  1  0  0  0  0  0  0  0  0  0
    3.4344   -2.9034   -2.6169 O   0  0  0  0  0  0  0  0  0  0  0  0
    5.5472   -3.5792   -1.4903 C   0  0  1  0  0  0  0  0  0  0  0  0
    6.3957   -2.8470   -2.3842 O   0  0  0  0  0  0  0  0  0  0  0  0
    5.3114   -3.6732    3.1422 C   0  0  0  0  0  0  0  0  0  0  0  0
    3.9149   -4.3329    3.3630 C   0  0  0  0  0  0  0  0  0  0  0  0
    3.9894   -5.7928    3.9146 C   0  0  2  0  0  0  0  0  0  0  0  0
    4.6102   -5.7617    5.3408 C   0  0  0  0  0  0  0  0  0  0  0  0
    2.6115   -6.5630    4.1342 C   0  0  1  0  0  0  0  0  0  0  0  0
    1.4212   -5.8728    4.8887 C   0  0  1  0  0  0  0  0  0  0  0  0
    1.5663   -4.5297    5.2994 O   0  0  0  0  0  0  0  0  0  0  0  0
    0.2398   -6.0083    3.9092 C   0  0  1  0  0  0  0  0  0  0  0  0
    0.9096   -6.0187    2.5256 C   0  0  0  0  0  0  0  0  0  0  0  0
   -2.1196   -7.2011    4.8317 H   0  0  0  0  0  0  0  0  0  0  0  0
   -1.6351   -8.9317    4.4253 H   0  0  0  0  0  0  0  0  0  0  0  0
    1.3059   -8.9546    4.0671 H   0  0  0  0  0  0  0  0  0  0  0  0
    0.4730   -8.8174    2.5095 H   0  0  0  0  0  0  0  0  0  0  0  0
    3.1282   -8.7234    2.1232 H   0  0  0  0  0  0  0  0  0  0  0  0
    2.2533   -7.8212    0.8771 H   0  0  0  0  0  0  0  0  0  0  0  0
    4.6433   -7.4548    0.8592 H   0  0  0  0  0  0  0  0  0  0  0  0
    3.7732   -5.9669    1.0677 H   0  0  0  0  0  0  0  0  0  0  0  0
    5.0709   -7.5800    3.3174 H   0  0  0  0  0  0  0  0  0  0  0  0
    8.3167   -5.9315    3.4751 H   0  0  0  0  0  0  0  0  0  0  0  0
    7.1833   -6.9861    4.3200 H   0  0  0  0  0  0  0  0  0  0  0  0
    7.1169   -5.2518    4.4909 H   0  0  0  0  0  0  0  0  0  0  0  0
    8.0727   -6.4200    1.3176 H   0  0  0  0  0  0  0  0  0  0  0  0
    6.5682   -6.6471    0.4913 H   0  0  0  0  0  0  0  0  0  0  0  0
    7.0855   -7.8387    1.6858 H   0  0  0  0  0  0  0  0  0  0  0  0
    7.1859   -4.0603    2.0349 H   0  0  0  0  0  0  0  0  0  0  0  0
    7.2663   -3.8688   -0.1675 H   0  0  0  0  0  0  0  0  0  0  0  0
    4.3717   -2.3024    1.1987 H   0  0  0  0  0  0  0  0  0  0  0  0
    5.8593   -0.4127    2.2074 H   0  0  0  0  0  0  0  0  0  0  0  0
    5.7087    0.4358    0.6982 H   0  0  0  0  0  0  0  0  0  0  0  0
    4.0647    1.1498    2.0653 H   0  0  0  0  0  0  0  0  0  0  0  0
    3.2191   -1.2071   -0.4713 H   0  0  0  0  0  0  0  0  0  0  0  0
    4.7814    0.2784   -1.1570 H   0  0  0  0  0  0  0  0  0  0  0  0
    3.5644   -3.5725   -0.7070 H   0  0  0  0  0  0  0  0  0  0  0  0
    2.5752   -2.4805   -2.4644 H   0  0  0  0  0  0  0  0  0  0  0  0
    5.4321   -4.6094   -1.8269 H   0  0  0  0  0  0  0  0  0  0  0  0
    7.2140   -3.3224   -2.5890 H   0  0  0  0  0  0  0  0  0  0  0  0
    5.8245   -3.6446    4.1084 H   0  0  0  0  0  0  0  0  0  0  0  0
    5.2058   -2.6407    2.9051 H   0  0  0  0  0  0  0  0  0  0  0  0
    3.3774   -3.6670    4.0290 H   0  0  0  0  0  0  0  0  0  0  0  0
    3.3671   -4.3092    2.4225 H   0  0  0  0  0  0  0  0  0  0  0  0
    3.8626   -5.6377    6.1232 H   0  0  0  0  0  0  0  0  0  0  0  0
    5.2892   -4.9450    5.5211 H   0  0  0  0  0  0  0  0  0  0  0  0
    5.1583   -6.6734    5.5696 H   0  0  0  0  0  0  0  0  0  0  0  0
    2.8883   -7.4352    4.7376 H   0  0  0  0  0  0  0  0  0  0  0  0
    1.1973   -6.4305    5.8001 H   0  0  0  0  0  0  0  0  0  0  0  0
    1.8355   -4.0107    4.5586 H   0  0  0  0  0  0  0  0  0  0  0  0
   -0.5680   -5.3043    4.1058 H   0  0  0  0  0  0  0  0  0  0  0  0
    1.3757   -5.0729    2.2512 H   0  0  0  0  0  0  0  0  0  0  0  0
    0.2263   -6.3161    1.7282 H   0  0  0  0  0  0  0  0  0  0  0  0
  1  2  2  0
  1 33  1  0
  1 34  1  0
  2 31  1  0
  2  3  1  0
  4  3  1  1
  3 35  1  0
  3 36  1  0
  4 28  1  0
  4 32  1  0
  4  5  1  0
  5  6  1  0
  5 37  1  0
  5 38  1  0
  6  7  1  0
  6 39  1  0
  6 40  1  0
  7 26  1  0
  7  8  1  0
  7 41  1  1
  8  9  1  0
  8 10  1  0
  8 11  1  0
  9 42  1  0
  9 43  1  0
  9 44  1  0
 10 45  1  0
 10 46  1  0
 10 47  1  0
 11 12  1  0
 11 24  1  0
 11 48  1  6
 12 13  1  0
 13 22  1  0
 13 14  1  0
 13 49  1  6
 14 15  1  0
 15 16  1  0
 15 18  1  0
 15 50  1  1
 16 17  1  0
 16 51  1  0
 16 52  1  0
 17 53  1  0
 18 19  1  0
 18 20  1  0
 18 54  1  1
 19 55  1  0
 20 21  1  0
 20 22  1  0
 20 56  1  1
 21 57  1  0
 22 23  1  0
 22 58  1  6
 23 59  1  0
 24 25  1  0
 24 60  1  0
 24 61  1  0
 25 26  1  0
 25 62  1  0
 25 63  1  0
 26 27  1  1
 26 28  1  0
 27 64  1  0
 27 65  1  0
 27 66  1  0
 28 29  1  0
 28 67  1  1
 29 30  1  0
 29 31  1  0
 29 68  1  1
 30 69  1  0
 31 32  1  0
 31 70  1  6
 32 71  1  0
 32 72  1  0
M  END
>  <i_m_ct_stereo_status>  (178) 
1

>  <s_m_source_file>  (178) 
/var/tmp/pbs.5083858.sched01/tmpvnyp8v7t/70kybzyij0.sdf

>  <i_m_source_file_index>  (178) 
5

>  <i_lp_mmshare_version>  (178) 
48012

>  <i_f3d_flags>  (178) 
0

>  <s_epik_input>  (178) 
W0NIMl09QyhbQ0gyXTEpW0NASF0oW0NIMl0yKVtDQEhdKFtPSF0pW0NAQEhdKFtDQEBdMTIzKVtDQEBdNChbQ0gzXSlbQ0BASF0oW0NIMl1bQ0gyXTMpQyhbQ0gzXSkoW0NIM10pW0NASF0oW0NIMl1bQ0gyXTQpT1tDQEBIXTVPW0NAQEhdKFtDSDJdW09IXSlbQ0BASF0oW09IXSlbQ0BASF0oW09IXSlbQ0BIXTVbT0hd

>  <s_epik_cmdline>  (178) 
J2VwaWtfcHl0aG9uJywgJy1waHQnLCAnMi4wJywgJy1waCcsICc3LjAnLCAnLXRuJywgJzgnLCAnLW1hJywgJzIwMCcsICctaW1hZScsICc8aW5maWxlLm1hZT4nLCAnLW9tYWUnLCAnPG91dGZpbGUubWFlPic=

>  <r_lp_tautomer_probability>  (178) 
1

>  <r_epik_Ionization_Penalty>  (178) 
3.7781e-06

>  <r_epik_Ionization_Penalty_Charging>  (178) 
0

>  <r_epik_Ionization_Penalty_Neutral>  (178) 
3.7781e-06

>  <r_epik_State_Penalty>  (178) 
-0

>  <r_epik_Charging_Adjusted_Penalty>  (178) 
0

>  <i_epik_Tot_Q>  (178) 
0

>  <i_epik_Tot_abs_Q>  (178) 
0

>  <s_epik_Chemistry_Notes>  (178) 
This compound contains an acetal/aminal-like group ( X-CH(R)-Y where X, Y are N, S, or O) that may be acid/base labile, releasing an aldehyde.

>  <s_lp_Force_Field>  (178) 
OPLS3e

>  <r_lp_Energy>  (178) 
88.2056

>  <b_lp_Chiralities_Consistent>  (178) 
1

>  <s_lp_Variant>  (178) 
54:0-1

>  <s_i_glide_gridfile>  (178) 
pfpi4k_grid

>  <i_i_glide_lignum>  (178) 
5

>  <i_i_glide_rotatable_bonds>  (178) 
8

>  <r_i_docking_score>  (178) 
-3.1702

>  <r_i_glide_ligand_efficiency>  (178) 
-0.0990686

>  <r_i_glide_ligand_efficiency_sa>  (178) 
-0.314523

>  <r_i_glide_ligand_efficiency_ln>  (178) 
-0.709893

>  <r_i_glide_gscore>  (178) 
-3.1702

>  <r_i_glide_lipo>  (178) 
-0.518773

>  <r_i_glide_hbond>  (178) 
-0.22519

>  <r_i_glide_metal>  (178) 
-0

>  <r_i_glide_rewards>  (178) 
-0.434846

>  <r_i_glide_evdw>  (178) 
-23.0875

>  <r_i_glide_ecoul>  (178) 
-7.53942

>  <r_i_glide_erotb>  (178) 
0.293897

>  <r_i_glide_esite>  (178) 
0

>  <r_i_glide_emodel>  (178) 
-36.7065

>  <r_i_glide_energy>  (178) 
-30.6269

>  <r_i_glide_einternal>  (178) 
0.873429

>  <r_i_glide_intrahb_reward>  (178) 
-0

>  <i_i_glide_confnum>  (178) 
3

>  <i_i_glide_posenum>  (178) 
14

>  <r_i_glide_eff_state_penalty>  (178) 
0

>  <ligand_id>  (178) 
54

>  <original_smiles>  (178) 
C=C1CC23CCC4C(C)(C)C(OC5OC(CO)C(O)C(O)C5O)CCC4(C)C2C(O)C1C3

>  <smiles>  (178) 
[H]OC([H])([H])C1([H])OC([H])(OC2([H])C([H])([H])C([H])([H])C3(C([H])([H])[H])C4([H])C([H])(O[H])C5([H])C(=C([H])[H])C([H])([H])C4(C([H])([H])C([H])([H])C3([H])C2(C([H])([H])[H])C([H])([H])[H])C5([H])[H])C([H])(O[H])C([H])(O[H])C1([H])O[H]

$$$$
54:0:1
     RDKit          3D

 72 76  0  0  1  0  0  0  0  0999 V2000
    0.6320   -9.9789    3.2019 C   0  0  0  0  0  0  0  0  0  0  0  0
    0.9480   -8.6731    3.3492 C   0  0  0  0  0  0  0  0  0  0  0  0
    2.0995   -7.9479    2.7165 C   0  0  0  0  0  0  0  0  0  0  0  0
    1.8399   -6.4757    3.1495 C   0  0  2  0  0  0  0  0  0  0  0  0
    2.6029   -5.5210    2.2218 C   0  0  0  0  0  0  0  0  0  0  0  0
    2.7351   -4.1076    2.7631 C   0  0  0  0  0  0  0  0  0  0  0  0
    3.3402   -4.0411    4.1935 C   0  0  1  0  0  0  0  0  0  0  0  0
    3.7189   -2.5613    4.6178 C   0  0  0  0  0  0  0  0  0  0  0  0
    4.6760   -2.5106    5.8309 C   0  0  0  0  0  0  0  0  0  0  0  0
    4.5182   -1.8326    3.5076 C   0  0  0  0  0  0  0  0  0  0  0  0
    2.4265   -1.7580    4.9425 C   0  0  1  0  0  0  0  0  0  0  0  0
    1.7008   -1.4794    3.7423 O   0  0  0  0  0  0  0  0  0  0  0  0
    1.3206   -0.1271    3.5725 C   0  0  2  0  0  0  0  0  0  0  0  0
    0.2519    0.2224    4.4351 O   0  0  0  0  0  0  0  0  0  0  0  0
   -0.1780    1.5968    4.3874 C   0  0  1  0  0  0  0  0  0  0  0  0
    0.9157    2.5645    4.9579 C   0  0  0  0  0  0  0  0  0  0  0  0
    1.1371    2.3987    6.3536 O   0  0  0  0  0  0  0  0  0  0  0  0
   -0.6414    1.9310    2.9503 C   0  0  1  0  0  0  0  0  0  0  0  0
   -1.1358    3.2686    2.8677 O   0  0  0  0  0  0  0  0  0  0  0  0
    0.4415    1.5962    1.8972 C   0  0  1  0  0  0  0  0  0  0  0  0
    1.5031    2.5471    2.0026 O   0  0  0  0  0  0  0  0  0  0  0  0
    0.9539    0.1453    2.1070 C   0  0  1  0  0  0  0  0  0  0  0  0
    2.0741   -0.1605    1.2860 O   0  0  0  0  0  0  0  0  0  0  0  0
    1.4758   -2.4909    5.8988 C   0  0  0  0  0  0  0  0  0  0  0  0
    1.1566   -3.9302    5.4440 C   0  0  0  0  0  0  0  0  0  0  0  0
    2.4180   -4.8322    5.2146 C   0  0  2  0  0  0  0  0  0  0  0  0
    3.1271   -5.0893    6.5690 C   0  0  0  0  0  0  0  0  0  0  0  0
    2.1615   -6.3048    4.6544 C   0  0  1  0  0  0  0  0  0  0  0  0
    1.0689   -7.2269    5.3027 C   0  0  1  0  0  0  0  0  0  0  0  0
    0.2816   -6.6645    6.3192 O   0  0  0  0  0  0  0  0  0  0  0  0
    0.1801   -7.6389    4.1127 C   0  0  1  0  0  0  0  0  0  0  0  0
    0.3031   -6.4558    3.1534 C   0  0  0  0  0  0  0  0  0  0  0  0
   -0.2390  -10.3791    3.6876 H   0  0  0  0  0  0  0  0  0  0  0  0
    1.2432  -10.6277    2.6055 H   0  0  0  0  0  0  0  0  0  0  0  0
    3.0534   -8.3345    3.0755 H   0  0  0  0  0  0  0  0  0  0  0  0
    2.0505   -8.0840    1.6361 H   0  0  0  0  0  0  0  0  0  0  0  0
    3.6092   -5.9203    2.0446 H   0  0  0  0  0  0  0  0  0  0  0  0
    2.1080   -5.4756    1.2551 H   0  0  0  0  0  0  0  0  0  0  0  0
    3.3548   -3.5773    2.0377 H   0  0  0  0  0  0  0  0  0  0  0  0
    1.7517   -3.6465    2.7089 H   0  0  0  0  0  0  0  0  0  0  0  0
    4.2852   -4.5743    4.1295 H   0  0  0  0  0  0  0  0  0  0  0  0
    5.1910   -1.5472    5.8999 H   0  0  0  0  0  0  0  0  0  0  0  0
    5.4424   -3.2866    5.7824 H   0  0  0  0  0  0  0  0  0  0  0  0
    4.1544   -2.6014    6.7798 H   0  0  0  0  0  0  0  0  0  0  0  0
    4.8788   -0.8588    3.8391 H   0  0  0  0  0  0  0  0  0  0  0  0
    3.9254   -1.6268    2.6231 H   0  0  0  0  0  0  0  0  0  0  0  0
    5.3831   -2.4234    3.1976 H   0  0  0  0  0  0  0  0  0  0  0  0
    2.7323   -0.8250    5.4234 H   0  0  0  0  0  0  0  0  0  0  0  0
    2.1888    0.4820    3.8493 H   0  0  0  0  0  0  0  0  0  0  0  0
   -1.0763    1.6571    5.0128 H   0  0  0  0  0  0  0  0  0  0  0  0
    1.8837    2.4597    4.4502 H   0  0  0  0  0  0  0  0  0  0  0  0
    0.6010    3.6018    4.8324 H   0  0  0  0  0  0  0  0  0  0  0  0
    1.9435    2.8784    6.5767 H   0  0  0  0  0  0  0  0  0  0  0  0
   -1.4893    1.2830    2.7189 H   0  0  0  0  0  0  0  0  0  0  0  0
   -0.7572    3.7288    2.0990 H   0  0  0  0  0  0  0  0  0  0  0  0
   -0.0078    1.6674    0.8969 H   0  0  0  0  0  0  0  0  0  0  0  0
    1.1744    3.3897    1.6431 H   0  0  0  0  0  0  0  0  0  0  0  0
    0.1582   -0.5380    1.8110 H   0  0  0  0  0  0  0  0  0  0  0  0
    1.7401   -0.2851    0.3867 H   0  0  0  0  0  0  0  0  0  0  0  0
    1.8855   -2.4857    6.9062 H   0  0  0  0  0  0  0  0  0  0  0  0
    0.5467   -1.9288    5.9702 H   0  0  0  0  0  0  0  0  0  0  0  0
    0.4923   -4.3317    6.2002 H   0  0  0  0  0  0  0  0  0  0  0  0
    0.5662   -3.8498    4.5367 H   0  0  0  0  0  0  0  0  0  0  0  0
    2.7484   -5.9780    7.0745 H   0  0  0  0  0  0  0  0  0  0  0  0
    2.9997   -4.2906    7.2870 H   0  0  0  0  0  0  0  0  0  0  0  0
    4.1994   -5.2507    6.4403 H   0  0  0  0  0  0  0  0  0  0  0  0
    3.1182   -6.8094    4.7965 H   0  0  0  0  0  0  0  0  0  0  0  0
    1.5431   -8.1138    5.7356 H   0  0  0  0  0  0  0  0  0  0  0  0
    0.8457   -6.5534    7.0738 H   0  0  0  0  0  0  0  0  0  0  0  0
   -0.8348   -7.9680    4.3680 H   0  0  0  0  0  0  0  0  0  0  0  0
   -0.1494   -5.5510    3.5480 H   0  0  0  0  0  0  0  0  0  0  0  0
   -0.1204   -6.6791    2.1720 H   0  0  0  0  0  0  0  0  0  0  0  0
  1  2  2  0
  1 33  1  0
  1 34  1  0
  2 31  1  0
  2  3  1  0
  4  3  1  6
  3 35  1  0
  3 36  1  0
  4 28  1  0
  4 32  1  0
  4  5  1  0
  5  6  1  0
  5 37  1  0
  5 38  1  0
  6  7  1  0
  6 39  1  0
  6 40  1  0
  7 26  1  0
  7  8  1  0
  7 41  1  6
  8  9  1  0
  8 10  1  0
  8 11  1  0
  9 42  1  0
  9 43  1  0
  9 44  1  0
 10 45  1  0
 10 46  1  0
 10 47  1  0
 11 12  1  0
 11 24  1  0
 11 48  1  1
 12 13  1  0
 13 22  1  0
 13 14  1  0
 13 49  1  1
 14 15  1  0
 15 16  1  0
 15 18  1  0
 15 50  1  1
 16 17  1  0
 16 51  1  0
 16 52  1  0
 17 53  1  0
 18 19  1  0
 18 20  1  0
 18 54  1  6
 19 55  1  0
 20 21  1  0
 20 22  1  0
 20 56  1  6
 21 57  1  0
 22 23  1  0
 22 58  1  6
 23 59  1  0
 24 25  1  0
 24 60  1  0
 24 61  1  0
 25 26  1  0
 25 62  1  0
 25 63  1  0
 26 27  1  1
 26 28  1  0
 27 64  1  0
 27 65  1  0
 27 66  1  0
 28 29  1  0
 28 67  1  6
 29 30  1  0
 29 31  1  0
 29 68  1  1
 30 69  1  0
 31 32  1  0
 31 70  1  1
 32 71  1  0
 32 72  1  0
M  END
>  <i_m_ct_stereo_status>  (179) 
1

>  <s_m_source_file>  (179) 
/var/tmp/pbs.5083858.sched01/tmpvnyp8v7t/70kybzyij0.sdf

>  <i_m_source_file_index>  (179) 
5

>  <i_lp_mmshare_version>  (179) 
48012

>  <i_f3d_flags>  (179) 
0

>  <s_epik_input>  (179) 
W0NIMl09QyhbQ0gyXTEpW0NASF0oW0NIMl0yKVtDQEhdKFtPSF0pW0NAQEhdKFtDQEBdMTIzKVtDQEBdNChbQ0gzXSlbQ0BASF0oW0NIMl1bQ0gyXTMpQyhbQ0gzXSkoW0NIM10pW0NASF0oW0NIMl1bQ0gyXTQpT1tDQEBIXTVPW0NAQEhdKFtDSDJdW09IXSlbQ0BASF0oW09IXSlbQ0BASF0oW09IXSlbQ0BIXTVbT0hd

>  <s_epik_cmdline>  (179) 
J2VwaWtfcHl0aG9uJywgJy1waHQnLCAnMi4wJywgJy1waCcsICc3LjAnLCAnLXRuJywgJzgnLCAnLW1hJywgJzIwMCcsICctaW1hZScsICc8aW5maWxlLm1hZT4nLCAnLW9tYWUnLCAnPG91dGZpbGUubWFlPic=

>  <r_lp_tautomer_probability>  (179) 
1

>  <r_epik_Ionization_Penalty>  (179) 
3.7781e-06

>  <r_epik_Ionization_Penalty_Charging>  (179) 
0

>  <r_epik_Ionization_Penalty_Neutral>  (179) 
3.7781e-06

>  <r_epik_State_Penalty>  (179) 
-0

>  <r_epik_Charging_Adjusted_Penalty>  (179) 
0

>  <i_epik_Tot_Q>  (179) 
0

>  <i_epik_Tot_abs_Q>  (179) 
0

>  <s_epik_Chemistry_Notes>  (179) 
This compound contains an acetal/aminal-like group ( X-CH(R)-Y where X, Y are N, S, or O) that may be acid/base labile, releasing an aldehyde.

>  <s_lp_Force_Field>  (179) 
OPLS3e

>  <r_lp_Energy>  (179) 
88.2056

>  <b_lp_Chiralities_Consistent>  (179) 
1

>  <s_lp_Variant>  (179) 
54:0-1

>  <s_i_glide_gridfile>  (179) 
pfpi4k_grid

>  <i_i_glide_lignum>  (179) 
5

>  <i_i_glide_rotatable_bonds>  (179) 
8

>  <r_i_docking_score>  (179) 
-2.85301

>  <r_i_glide_ligand_efficiency>  (179) 
-0.0891565

>  <r_i_glide_ligand_efficiency_sa>  (179) 
-0.283054

>  <r_i_glide_ligand_efficiency_ln>  (179) 
-0.638866

>  <r_i_glide_gscore>  (179) 
-2.85301

>  <r_i_glide_lipo>  (179) 
-0.0458813

>  <r_i_glide_hbond>  (179) 
0

>  <r_i_glide_metal>  (179) 
-0

>  <r_i_glide_rewards>  (179) 
-0.323312

>  <r_i_glide_evdw>  (179) 
-16.2404

>  <r_i_glide_ecoul>  (179) 
-13.0502

>  <r_i_glide_erotb>  (179) 
0.293897

>  <r_i_glide_esite>  (179) 
-0.00816348

>  <r_i_glide_emodel>  (179) 
-34.1787

>  <r_i_glide_energy>  (179) 
-29.2906

>  <r_i_glide_einternal>  (179) 
3.85864

>  <r_i_glide_intrahb_reward>  (179) 
-0

>  <i_i_glide_confnum>  (179) 
1

>  <i_i_glide_posenum>  (179) 
22

>  <r_i_glide_eff_state_penalty>  (179) 
0

>  <ligand_id>  (179) 
54

>  <original_smiles>  (179) 
C=C1CC23CCC4C(C)(C)C(OC5OC(CO)C(O)C(O)C5O)CCC4(C)C2C(O)C1C3

>  <smiles>  (179) 
[H]OC([H])([H])C1([H])OC([H])(OC2([H])C([H])([H])C([H])([H])C3(C([H])([H])[H])C4([H])C([H])(O[H])C5([H])C(=C([H])[H])C([H])([H])C4(C([H])([H])C([H])([H])C3([H])C2(C([H])([H])[H])C([H])([H])[H])C5([H])[H])C([H])(O[H])C([H])(O[H])C1([H])O[H]

$$$$
54:0:2
     RDKit          3D

 72 76  0  0  1  0  0  0  0  0999 V2000
    1.1612  -11.1503    2.9342 C   0  0  0  0  0  0  0  0  0  0  0  0
    1.4102   -9.8761    3.2757 C   0  0  0  0  0  0  0  0  0  0  0  0
    2.6826   -9.3145    3.8382 C   0  0  0  0  0  0  0  0  0  0  0  0
    2.3730   -7.7900    3.8874 C   0  0  2  0  0  0  0  0  0  0  0  0
    3.6820   -7.0012    3.9649 C   0  0  0  0  0  0  0  0  0  0  0  0
    3.5080   -5.5585    4.4086 C   0  0  0  0  0  0  0  0  0  0  0  0
    2.7290   -5.4088    5.7542 C   0  0  1  0  0  0  0  0  0  0  0  0
    2.8125   -3.9311    6.3213 C   0  0  0  0  0  0  0  0  0  0  0  0
    2.3827   -3.8389    7.8112 C   0  0  0  0  0  0  0  0  0  0  0  0
    4.2850   -3.4255    6.3436 C   0  0  0  0  0  0  0  0  0  0  0  0
    1.9047   -2.9736    5.4906 C   0  0  1  0  0  0  0  0  0  0  0  0
    2.4865   -2.7178    4.2001 O   0  0  0  0  0  0  0  0  0  0  0  0
    3.0971   -1.4528    4.0256 C   0  0  2  0  0  0  0  0  0  0  0  0
    2.2193   -0.3706    4.2639 O   0  0  0  0  0  0  0  0  0  0  0  0
    1.0668   -0.3448    3.4194 C   0  0  1  0  0  0  0  0  0  0  0  0
    0.1545    0.7709    3.9498 C   0  0  0  0  0  0  0  0  0  0  0  0
   -0.9998    0.9109    3.1402 O   0  0  0  0  0  0  0  0  0  0  0  0
    1.5369   -0.1616    1.9640 C   0  0  1  0  0  0  0  0  0  0  0  0
    2.0776    1.1440    1.7762 O   0  0  0  0  0  0  0  0  0  0  0  0
    2.5529   -1.2558    1.5971 C   0  0  1  0  0  0  0  0  0  0  0  0
    3.0220   -1.1072    0.2561 O   0  0  0  0  0  0  0  0  0  0  0  0
    3.6925   -1.3572    2.6138 C   0  0  1  0  0  0  0  0  0  0  0  0
    4.5208   -0.2046    2.5810 O   0  0  0  0  0  0  0  0  0  0  0  0
    0.4822   -3.5545    5.2772 C   0  0  0  0  0  0  0  0  0  0  0  0
    0.4748   -4.9941    4.7284 C   0  0  0  0  0  0  0  0  0  0  0  0
    1.2738   -6.0139    5.6002 C   0  0  2  0  0  0  0  0  0  0  0  0
    0.5546   -6.1953    6.9684 C   0  0  0  0  0  0  0  0  0  0  0  0
    1.3727   -7.4985    5.0366 C   0  0  1  0  0  0  0  0  0  0  0  0
    0.0957   -8.2506    4.5189 C   0  0  1  0  0  0  0  0  0  0  0  0
   -1.1238   -7.5523    4.4432 O   0  0  0  0  0  0  0  0  0  0  0  0
    0.4901   -8.7087    3.0995 C   0  0  1  0  0  0  0  0  0  0  0  0
    1.4883   -7.6399    2.6407 C   0  0  0  0  0  0  0  0  0  0  0  0
    0.2155  -11.4235    2.5021 H   0  0  0  0  0  0  0  0  0  0  0  0
    1.9186  -11.9093    3.0748 H   0  0  0  0  0  0  0  0  0  0  0  0
    2.9082   -9.7409    4.8151 H   0  0  0  0  0  0  0  0  0  0  0  0
    3.5016   -9.5474    3.1607 H   0  0  0  0  0  0  0  0  0  0  0  0
    4.3570   -7.4927    4.6687 H   0  0  0  0  0  0  0  0  0  0  0  0
    4.1823   -7.0173    2.9957 H   0  0  0  0  0  0  0  0  0  0  0  0
    4.5196   -5.1738    4.4794 H   0  0  0  0  0  0  0  0  0  0  0  0
    3.0419   -5.0079    3.5969 H   0  0  0  0  0  0  0  0  0  0  0  0
    3.2642   -6.0389    6.4692 H   0  0  0  0  0  0  0  0  0  0  0  0
    2.7487   -2.9221    8.2747 H   0  0  0  0  0  0  0  0  0  0  0  0
    2.7627   -4.6769    8.3974 H   0  0  0  0  0  0  0  0  0  0  0  0
    1.3006   -3.7911    7.9395 H   0  0  0  0  0  0  0  0  0  0  0  0
    4.3502   -2.4443    6.8126 H   0  0  0  0  0  0  0  0  0  0  0  0
    4.7020   -3.2925    5.3467 H   0  0  0  0  0  0  0  0  0  0  0  0
    4.9313   -4.1101    6.8995 H   0  0  0  0  0  0  0  0  0  0  0  0
    1.7988   -2.0269    6.0242 H   0  0  0  0  0  0  0  0  0  0  0  0
    3.8844   -1.3606    4.7822 H   0  0  0  0  0  0  0  0  0  0  0  0
    0.5430   -1.2966    3.5007 H   0  0  0  0  0  0  0  0  0  0  0  0
   -0.1568    0.5636    4.9721 H   0  0  0  0  0  0  0  0  0  0  0  0
    0.6720    1.7332    3.9765 H   0  0  0  0  0  0  0  0  0  0  0  0
   -0.7196    1.2200    2.2661 H   0  0  0  0  0  0  0  0  0  0  0  0
    0.6589   -0.2628    1.3353 H   0  0  0  0  0  0  0  0  0  0  0  0
    2.1985    1.2788    0.8275 H   0  0  0  0  0  0  0  0  0  0  0  0
    2.0231   -2.2026    1.6252 H   0  0  0  0  0  0  0  0  0  0  0  0
    2.2243   -1.0669   -0.3235 H   0  0  0  0  0  0  0  0  0  0  0  0
    4.3152   -2.2332    2.4109 H   0  0  0  0  0  0  0  0  0  0  0  0
    3.9216    0.5608    2.5757 H   0  0  0  0  0  0  0  0  0  0  0  0
   -0.0771   -3.5020    6.2089 H   0  0  0  0  0  0  0  0  0  0  0  0
   -0.0971   -2.9489    4.5838 H   0  0  0  0  0  0  0  0  0  0  0  0
   -0.5669   -5.2756    4.6373 H   0  0  0  0  0  0  0  0  0  0  0  0
    0.8603   -4.9530    3.7143 H   0  0  0  0  0  0  0  0  0  0  0  0
   -0.1859   -6.9912    6.9349 H   0  0  0  0  0  0  0  0  0  0  0  0
    0.0021   -5.3192    7.2904 H   0  0  0  0  0  0  0  0  0  0  0  0
    1.2678   -6.4487    7.7547 H   0  0  0  0  0  0  0  0  0  0  0  0
    1.7477   -8.0726    5.8838 H   0  0  0  0  0  0  0  0  0  0  0  0
   -0.0899   -9.1191    5.1544 H   0  0  0  0  0  0  0  0  0  0  0  0
   -1.8029   -8.2097    4.3966 H   0  0  0  0  0  0  0  0  0  0  0  0
   -0.3359   -8.9214    2.4243 H   0  0  0  0  0  0  0  0  0  0  0  0
    1.0377   -6.6652    2.4933 H   0  0  0  0  0  0  0  0  0  0  0  0
    1.9992   -7.9284    1.7206 H   0  0  0  0  0  0  0  0  0  0  0  0
  1  2  2  0
  1 33  1  0
  1 34  1  0
  2 31  1  0
  2  3  1  0
  4  3  1  1
  3 35  1  0
  3 36  1  0
  4 28  1  0
  4 32  1  0
  4  5  1  0
  5  6  1  0
  5 37  1  0
  5 38  1  0
  6  7  1  0
  6 39  1  0
  6 40  1  0
  7 26  1  0
  7  8  1  0
  7 41  1  1
  8  9  1  0
  8 10  1  0
  8 11  1  0
  9 42  1  0
  9 43  1  0
  9 44  1  0
 10 45  1  0
 10 46  1  0
 10 47  1  0
 11 12  1  0
 11 24  1  0
 11 48  1  1
 12 13  1  0
 13 22  1  0
 13 14  1  0
 13 49  1  1
 14 15  1  0
 15 16  1  0
 15 18  1  0
 15 50  1  6
 16 17  1  0
 16 51  1  0
 16 52  1  0
 17 53  1  0
 18 19  1  0
 18 20  1  0
 18 54  1  6
 19 55  1  0
 20 21  1  0
 20 22  1  0
 20 56  1  6
 21 57  1  0
 22 23  1  0
 22 58  1  6
 23 59  1  0
 24 25  1  0
 24 60  1  0
 24 61  1  0
 25 26  1  0
 25 62  1  0
 25 63  1  0
 26 27  1  1
 26 28  1  0
 27 64  1  0
 27 65  1  0
 27 66  1  0
 28 29  1  0
 28 67  1  1
 29 30  1  0
 29 31  1  0
 29 68  1  1
 30 69  1  0
 31 32  1  0
 31 70  1  6
 32 71  1  0
 32 72  1  0
M  END
>  <i_m_ct_stereo_status>  (180) 
1

>  <s_m_source_file>  (180) 
/var/tmp/pbs.5083858.sched01/tmpvnyp8v7t/70kybzyij0.sdf

>  <i_m_source_file_index>  (180) 
5

>  <i_lp_mmshare_version>  (180) 
48012

>  <i_f3d_flags>  (180) 
0

>  <s_epik_input>  (180) 
W0NIMl09QyhbQ0gyXTEpW0NASF0oW0NIMl0yKVtDQEhdKFtPSF0pW0NAQEhdKFtDQEBdMTIzKVtDQEBdNChbQ0gzXSlbQ0BASF0oW0NIMl1bQ0gyXTMpQyhbQ0gzXSkoW0NIM10pW0NASF0oW0NIMl1bQ0gyXTQpT1tDQEBIXTVPW0NAQEhdKFtDSDJdW09IXSlbQ0BASF0oW09IXSlbQ0BASF0oW09IXSlbQ0BIXTVbT0hd

>  <s_epik_cmdline>  (180) 
J2VwaWtfcHl0aG9uJywgJy1waHQnLCAnMi4wJywgJy1waCcsICc3LjAnLCAnLXRuJywgJzgnLCAnLW1hJywgJzIwMCcsICctaW1hZScsICc8aW5maWxlLm1hZT4nLCAnLW9tYWUnLCAnPG91dGZpbGUubWFlPic=

>  <r_lp_tautomer_probability>  (180) 
1

>  <r_epik_Ionization_Penalty>  (180) 
3.7781e-06

>  <r_epik_Ionization_Penalty_Charging>  (180) 
0

>  <r_epik_Ionization_Penalty_Neutral>  (180) 
3.7781e-06

>  <r_epik_State_Penalty>  (180) 
-0

>  <r_epik_Charging_Adjusted_Penalty>  (180) 
0

>  <i_epik_Tot_Q>  (180) 
0

>  <i_epik_Tot_abs_Q>  (180) 
0

>  <s_epik_Chemistry_Notes>  (180) 
This compound contains an acetal/aminal-like group ( X-CH(R)-Y where X, Y are N, S, or O) that may be acid/base labile, releasing an aldehyde.

>  <s_lp_Force_Field>  (180) 
OPLS3e

>  <r_lp_Energy>  (180) 
88.2056

>  <b_lp_Chiralities_Consistent>  (180) 
1

>  <s_lp_Variant>  (180) 
54:0-1

>  <s_i_glide_gridfile>  (180) 
pfpi4k_grid

>  <i_i_glide_lignum>  (180) 
5

>  <i_i_glide_rotatable_bonds>  (180) 
8

>  <r_i_docking_score>  (180) 
-2.63992

>  <r_i_glide_ligand_efficiency>  (180) 
-0.0824974

>  <r_i_glide_ligand_efficiency_sa>  (180) 
-0.261913

>  <r_i_glide_ligand_efficiency_ln>  (180) 
-0.591149

>  <r_i_glide_gscore>  (180) 
-2.63992

>  <r_i_glide_lipo>  (180) 
-0.202046

>  <r_i_glide_hbond>  (180) 
0

>  <r_i_glide_metal>  (180) 
-0

>  <r_i_glide_rewards>  (180) 
-0.823312

>  <r_i_glide_evdw>  (180) 
-18.5279

>  <r_i_glide_ecoul>  (180) 
-6.54709

>  <r_i_glide_erotb>  (180) 
0.293897

>  <r_i_glide_esite>  (180) 
0

>  <r_i_glide_emodel>  (180) 
-35.4934

>  <r_i_glide_energy>  (180) 
-25.0749

>  <r_i_glide_einternal>  (180) 
1.60858

>  <r_i_glide_intrahb_reward>  (180) 
-0.5

>  <i_i_glide_confnum>  (180) 
2

>  <i_i_glide_posenum>  (180) 
15

>  <r_i_glide_eff_state_penalty>  (180) 
0

>  <ligand_id>  (180) 
54

>  <original_smiles>  (180) 
C=C1CC23CCC4C(C)(C)C(OC5OC(CO)C(O)C(O)C5O)CCC4(C)C2C(O)C1C3

>  <smiles>  (180) 
[H]OC([H])([H])C1([H])OC([H])(OC2([H])C([H])([H])C([H])([H])C3(C([H])([H])[H])C4([H])C([H])(O[H])C5([H])C(=C([H])[H])C([H])([H])C4(C([H])([H])C([H])([H])C3([H])C2(C([H])([H])[H])C([H])([H])[H])C5([H])[H])C([H])(O[H])C([H])(O[H])C1([H])O[H]

$$$$
55:0:0
     RDKit          3D

 35 38  0  0  1  0  0  0  0  0999 V2000
    3.7948   -1.9243   -1.9027 C   0  0  0  0  0  0  0  0  0  0  0  0
    4.7833   -2.7386   -1.0546 C   0  0  2  0  0  0  0  0  0  0  0  0
    4.2348   -4.2060   -0.6926 C   0  0  0  0  0  0  0  0  0  0  0  0
    4.6452   -4.7955    0.7520 C   0  0  2  0  0  0  0  0  0  0  0  0
    6.1112   -4.4602    0.7035 C   0  0  0  0  0  0  0  0  0  0  0  0
    6.9993   -5.3001    0.8229 O   0  0  0  0  0  0  0  0  0  0  0  0
    6.2948   -3.1493    0.5707 O   0  0  0  0  0  0  0  0  0  0  0  0
    5.2332   -2.1768    0.3191 C   0  0  1  0  0  0  0  0  0  0  0  0
    6.0563   -1.0254    0.7930 C   0  0  0  0  0  0  0  0  0  0  0  0
    5.8077   -0.9619    2.1251 C   0  0  0  0  0  0  0  0  0  0  0  0
    4.7354   -1.7782    2.5433 N   0  0  0  0  0  0  0  0  0  0  0  0
    4.9839   -3.1747    3.0222 C   0  0  1  0  0  0  0  0  0  0  0  0
    4.5939   -3.4848    4.4607 C   0  0  0  0  0  0  0  0  0  0  0  0
    4.4317   -2.6691    5.3668 O   0  0  0  0  0  0  0  0  0  0  0  0
    4.5029   -4.8380    4.5859 O   0  0  0  0  0  0  0  0  0  0  0  0
    4.4990   -5.4376    3.3600 C   0  0  0  0  0  0  0  0  0  0  0  0
    4.5955   -6.6436    3.1347 O   0  0  0  0  0  0  0  0  0  0  0  0
    4.2851   -4.3855    2.2804 C   0  0  2  0  0  0  0  0  0  0  0  0
    4.0277   -1.8221    1.2934 C   0  0  1  0  0  0  0  0  0  0  0  0
    3.2826   -0.4741    1.0267 C   0  0  0  0  0  0  0  0  0  0  0  0
    2.7827   -1.9451   -1.4979 H   0  0  0  0  0  0  0  0  0  0  0  0
    3.7239   -2.3506   -2.9032 H   0  0  0  0  0  0  0  0  0  0  0  0
    4.1038   -0.8831   -2.0081 H   0  0  0  0  0  0  0  0  0  0  0  0
    5.6744   -2.8463   -1.6753 H   0  0  0  0  0  0  0  0  0  0  0  0
    3.1543   -4.2556   -0.8702 H   0  0  0  0  0  0  0  0  0  0  0  0
    4.6247   -4.8885   -1.4514 H   0  0  0  0  0  0  0  0  0  0  0  0
    3.8599   -4.0908    0.7815 H   0  0  0  0  0  0  0  0  0  0  0  0
    6.7817   -0.4681    0.2223 H   0  0  0  0  0  0  0  0  0  0  0  0
    6.2613   -0.3087    2.8552 H   0  0  0  0  0  0  0  0  0  0  0  0
    6.0629   -3.3095    2.9978 H   0  0  0  0  0  0  0  0  0  0  0  0
    3.1992   -4.2677    2.3782 H   0  0  0  0  0  0  0  0  0  0  0  0
    3.1550   -2.4646    1.3155 H   0  0  0  0  0  0  0  0  0  0  0  0
    2.6640   -0.5301    0.1354 H   0  0  0  0  0  0  0  0  0  0  0  0
    3.9264    0.3994    0.8956 H   0  0  0  0  0  0  0  0  0  0  0  0
    2.6044   -0.2437    1.8497 H   0  0  0  0  0  0  0  0  0  0  0  0
  1  2  1  0
  1 21  1  0
  1 22  1  0
  1 23  1  0
  2  8  1  0
  2  3  1  0
  2 24  1  6
  3  4  1  0
  3 25  1  0
  3 26  1  0
  4  5  1  0
  4 27  1  1
  4 18  1  0
  5  6  2  0
  5  7  1  0
  7  8  1  0
  8 19  1  0
  8  9  1  6
  9 10  2  0
  9 28  1  0
 10 11  1  0
 10 29  1  0
 11 19  1  0
 11 12  1  0
 12 13  1  0
 12 30  1  1
 12 18  1  0
 13 14  2  0
 13 15  1  0
 15 16  1  0
 16 18  1  0
 16 17  2  0
 18 31  1  6
 19 20  1  0
 19 32  1  1
 20 33  1  0
 20 34  1  0
 20 35  1  0
M  END
>  <i_m_ct_stereo_status>  (181) 
1

>  <s_m_source_file>  (181) 
/var/tmp/pbs.5083858.sched01/tmp24im8byh/75nnsl7p92.sdf

>  <i_m_source_file_index>  (181) 
1

>  <i_lp_mmshare_version>  (181) 
48012

>  <i_f3d_flags>  (181) 
0

>  <s_epik_input>  (181) 
W0NIM11bQ0BASF0oQzEyMylbQ0gyXVtDQEhdKEMoPU8pTzEpYzRjKE4oW0NIXT1bQ0hdMilbQ0BIXTNbQ0gzXSljKFtPSF0pb2M0W09IXQ==

>  <s_epik_cmdline>  (181) 
J2VwaWtfcHl0aG9uJywgJy1waHQnLCAnMi4wJywgJy1waCcsICc3LjAnLCAnLXRuJywgJzgnLCAnLW1hJywgJzIwMCcsICctaW1hZScsICc8aW5maWxlLm1hZT4nLCAnLW9tYWUnLCAnPG91dGZpbGUubWFlPic=

>  <r_lp_tautomer_probability>  (181) 
1

>  <r_epik_Ionization_Penalty>  (181) 
2.28409e-09

>  <r_epik_Ionization_Penalty_Charging>  (181) 
2.26913e-09

>  <r_epik_Ionization_Penalty_Neutral>  (181) 
1.49584e-11

>  <r_epik_State_Penalty>  (181) 
-0

>  <r_epik_Charging_Adjusted_Penalty>  (181) 
2.26913e-09

>  <i_epik_Tot_Q>  (181) 
0

>  <i_epik_Tot_abs_Q>  (181) 
0

>  <s_epik_Chemistry_Notes>  (181) 
This compound has an ester and may undergo hydrolysis at high or low pH. This compound has an imine and may undergo hydrolysis.

>  <s_lp_Force_Field>  (181) 
OPLS3e

>  <r_lp_Energy>  (181) 
160.86

>  <b_lp_Chiralities_Consistent>  (181) 
1

>  <s_lp_Variant>  (181) 
55:0-1

>  <s_i_glide_gridfile>  (181) 
pfpi4k_grid

>  <i_i_glide_lignum>  (181) 
1

>  <i_i_glide_rotatable_bonds>  (181) 
0

>  <r_i_docking_score>  (181) 
-3.32757

>  <r_i_glide_ligand_efficiency>  (181) 
-0.166379

>  <r_i_glide_ligand_efficiency_sa>  (181) 
-0.451621

>  <r_i_glide_ligand_efficiency_ln>  (181) 
-0.832782

>  <r_i_glide_gscore>  (181) 
-3.32757

>  <r_i_glide_lipo>  (181) 
-0.348751

>  <r_i_glide_hbond>  (181) 
0

>  <r_i_glide_metal>  (181) 
-0

>  <r_i_glide_rewards>  (181) 
-1.74463

>  <r_i_glide_evdw>  (181) 
-19.4619

>  <r_i_glide_ecoul>  (181) 
-1.74064

>  <r_i_glide_erotb>  (181) 
0

>  <r_i_glide_esite>  (181) 
0

>  <r_i_glide_emodel>  (181) 
-25.7134

>  <r_i_glide_energy>  (181) 
-21.2025

>  <r_i_glide_einternal>  (181) 
0

>  <r_i_glide_intrahb_reward>  (181) 
-0

>  <i_i_glide_confnum>  (181) 
2

>  <i_i_glide_posenum>  (181) 
15

>  <r_i_glide_eff_state_penalty>  (181) 
0

>  <ligand_id>  (181) 
55

>  <original_smiles>  (181) 
CC1CC2C(=O)OC13C=CN(c1c(O)oc(O)c12)C3C

>  <smiles>  (181) 
[H]C1=C([H])C23OC(=O)C([H])(C([H])([H])C2([H])C([H])([H])[H])C2([H])C(=O)OC(=O)C2([H])N1C3([H])C([H])([H])[H]

$$$$
55:0:1
     RDKit          3D

 35 38  0  0  1  0  0  0  0  0999 V2000
    5.3696   -3.6813   -2.3500 C   0  0  0  0  0  0  0  0  0  0  0  0
    5.4918   -3.6746   -0.8065 C   0  0  2  0  0  0  0  0  0  0  0  0
    4.5565   -4.7731   -0.1112 C   0  0  0  0  0  0  0  0  0  0  0  0
    3.8586   -4.3606    1.2812 C   0  0  2  0  0  0  0  0  0  0  0  0
    5.0699   -3.7915    1.9424 C   0  0  0  0  0  0  0  0  0  0  0  0
    5.4660   -4.2183    3.0255 O   0  0  0  0  0  0  0  0  0  0  0  0
    5.5657   -2.7808    1.2483 O   0  0  0  0  0  0  0  0  0  0  0  0
    5.1105   -2.3695   -0.0728 C   0  0  1  0  0  0  0  0  0  0  0  0
    5.6856   -1.0118    0.0607 C   0  0  0  0  0  0  0  0  0  0  0  0
    4.6790   -0.2738    0.6086 C   0  0  0  0  0  0  0  0  0  0  0  0
    3.4488   -0.9378    0.6394 N   0  0  0  0  0  0  0  0  0  0  0  0
    3.0481   -1.7308    1.8534 C   0  0  1  0  0  0  0  0  0  0  0  0
    1.8025   -1.2778    2.5975 C   0  0  0  0  0  0  0  0  0  0  0  0
    1.2959   -0.1598    2.5575 O   0  0  0  0  0  0  0  0  0  0  0  0
    1.3816   -2.3165    3.3803 O   0  0  0  0  0  0  0  0  0  0  0  0
    2.0226   -3.4690    3.0272 C   0  0  0  0  0  0  0  0  0  0  0  0
    1.9682   -4.5553    3.6000 O   0  0  0  0  0  0  0  0  0  0  0  0
    2.7445   -3.2684    1.6992 C   0  0  2  0  0  0  0  0  0  0  0  0
    3.6700   -1.8410   -0.4577 C   0  0  1  0  0  0  0  0  0  0  0  0
    3.5959   -1.1089   -1.8397 C   0  0  0  0  0  0  0  0  0  0  0  0
    4.3329   -3.6859   -2.7074 H   0  0  0  0  0  0  0  0  0  0  0  0
    5.7664   -4.6000   -2.7303 H   0  0  0  0  0  0  0  0  0  0  0  0
    5.9150   -2.8473   -2.8151 H   0  0  0  0  0  0  0  0  0  0  0  0
    6.5371   -3.8994   -0.5826 H   0  0  0  0  0  0  0  0  0  0  0  0
    3.8255   -5.1544   -0.8235 H   0  0  0  0  0  0  0  0  0  0  0  0
    5.1675   -5.6577    0.0664 H   0  0  0  0  0  0  0  0  0  0  0  0
    3.3725   -3.9731    0.4268 H   0  0  0  0  0  0  0  0  0  0  0  0
    6.7012   -0.7119   -0.1277 H   0  0  0  0  0  0  0  0  0  0  0  0
    4.7011    0.7649    0.8881 H   0  0  0  0  0  0  0  0  0  0  0  0
    3.8576   -1.5990    2.5642 H   0  0  0  0  0  0  0  0  0  0  0  0
    1.8831   -3.3705    1.0328 H   0  0  0  0  0  0  0  0  0  0  0  0
    2.8430   -2.5260   -0.6157 H   0  0  0  0  0  0  0  0  0  0  0  0
    3.6341   -1.7632   -2.6931 H   0  0  0  0  0  0  0  0  0  0  0  0
    4.3095   -0.2950   -2.0011 H   0  0  0  0  0  0  0  0  0  0  0  0
    2.6151   -0.6601   -1.9286 H   0  0  0  0  0  0  0  0  0  0  0  0
  1  2  1  0
  1 21  1  0
  1 22  1  0
  1 23  1  0
  2  8  1  0
  2  3  1  0
  2 24  1  6
  3  4  1  0
  3 25  1  0
  3 26  1  0
  4  5  1  0
  4 27  1  6
  4 18  1  0
  5  6  2  0
  5  7  1  0
  7  8  1  0
  8 19  1  0
  8  9  1  6
  9 10  2  0
  9 28  1  0
 10 11  1  0
 10 29  1  0
 11 19  1  0
 11 12  1  0
 12 13  1  0
 12 30  1  1
 12 18  1  0
 13 14  2  0
 13 15  1  0
 15 16  1  0
 16 18  1  0
 16 17  2  0
 18 31  1  6
 19 20  1  0
 19 32  1  6
 20 33  1  0
 20 34  1  0
 20 35  1  0
M  END
>  <i_m_ct_stereo_status>  (182) 
1

>  <s_m_source_file>  (182) 
/var/tmp/pbs.5083858.sched01/tmp24im8byh/75nnsl7p92.sdf

>  <i_m_source_file_index>  (182) 
1

>  <i_lp_mmshare_version>  (182) 
48012

>  <i_f3d_flags>  (182) 
0

>  <s_epik_input>  (182) 
W0NIM11bQ0BASF0oQzEyMylbQ0gyXVtDQEhdKEMoPU8pTzEpYzRjKE4oW0NIXT1bQ0hdMilbQ0BIXTNbQ0gzXSljKFtPSF0pb2M0W09IXQ==

>  <s_epik_cmdline>  (182) 
J2VwaWtfcHl0aG9uJywgJy1waHQnLCAnMi4wJywgJy1waCcsICc3LjAnLCAnLXRuJywgJzgnLCAnLW1hJywgJzIwMCcsICctaW1hZScsICc8aW5maWxlLm1hZT4nLCAnLW9tYWUnLCAnPG91dGZpbGUubWFlPic=

>  <r_lp_tautomer_probability>  (182) 
1

>  <r_epik_Ionization_Penalty>  (182) 
2.28409e-09

>  <r_epik_Ionization_Penalty_Charging>  (182) 
2.26913e-09

>  <r_epik_Ionization_Penalty_Neutral>  (182) 
1.49584e-11

>  <r_epik_State_Penalty>  (182) 
-0

>  <r_epik_Charging_Adjusted_Penalty>  (182) 
2.26913e-09

>  <i_epik_Tot_Q>  (182) 
0

>  <i_epik_Tot_abs_Q>  (182) 
0

>  <s_epik_Chemistry_Notes>  (182) 
This compound has an ester and may undergo hydrolysis at high or low pH. This compound has an imine and may undergo hydrolysis.

>  <s_lp_Force_Field>  (182) 
OPLS3e

>  <r_lp_Energy>  (182) 
160.86

>  <b_lp_Chiralities_Consistent>  (182) 
1

>  <s_lp_Variant>  (182) 
55:0-1

>  <s_i_glide_gridfile>  (182) 
pfpi4k_grid

>  <i_i_glide_lignum>  (182) 
1

>  <i_i_glide_rotatable_bonds>  (182) 
0

>  <r_i_docking_score>  (182) 
-3.15891

>  <r_i_glide_ligand_efficiency>  (182) 
-0.157945

>  <r_i_glide_ligand_efficiency_sa>  (182) 
-0.42873

>  <r_i_glide_ligand_efficiency_ln>  (182) 
-0.79057

>  <r_i_glide_gscore>  (182) 
-3.15891

>  <r_i_glide_lipo>  (182) 
-0.33911

>  <r_i_glide_hbond>  (182) 
0

>  <r_i_glide_metal>  (182) 
-0

>  <r_i_glide_rewards>  (182) 
-1.56771

>  <r_i_glide_evdw>  (182) 
-18.8198

>  <r_i_glide_ecoul>  (182) 
-1.57376

>  <r_i_glide_erotb>  (182) 
0

>  <r_i_glide_esite>  (182) 
-0.0750337

>  <r_i_glide_emodel>  (182) 
-24.5733

>  <r_i_glide_energy>  (182) 
-20.3936

>  <r_i_glide_einternal>  (182) 
0

>  <r_i_glide_intrahb_reward>  (182) 
-0

>  <i_i_glide_confnum>  (182) 
2

>  <i_i_glide_posenum>  (182) 
13

>  <r_i_glide_eff_state_penalty>  (182) 
0

>  <ligand_id>  (182) 
55

>  <original_smiles>  (182) 
CC1CC2C(=O)OC13C=CN(c1c(O)oc(O)c12)C3C

>  <smiles>  (182) 
[H]C1=C([H])C23OC(=O)C([H])(C([H])([H])C2([H])C([H])([H])[H])C2([H])C(=O)OC(=O)C2([H])N1C3([H])C([H])([H])[H]

$$$$
55:0:2
     RDKit          3D

 35 38  0  0  1  0  0  0  0  0999 V2000
    5.0172   -4.2066   -1.9826 C   0  0  0  0  0  0  0  0  0  0  0  0
    4.9813   -4.0394   -0.4576 C   0  0  2  0  0  0  0  0  0  0  0  0
    3.5844   -4.5029    0.1977 C   0  0  0  0  0  0  0  0  0  0  0  0
    3.0644   -3.6495    1.4669 C   0  0  2  0  0  0  0  0  0  0  0  0
    4.3648   -3.6027    2.2294 C   0  0  0  0  0  0  0  0  0  0  0  0
    4.4867   -4.0198    3.3747 O   0  0  0  0  0  0  0  0  0  0  0  0
    5.3201   -3.0204    1.5160 O   0  0  0  0  0  0  0  0  0  0  0  0
    5.1927   -2.6234    0.1165 C   0  0  1  0  0  0  0  0  0  0  0  0
    6.3308   -1.6666    0.1828 C   0  0  0  0  0  0  0  0  0  0  0  0
    5.7377   -0.5081    0.5649 C   0  0  0  0  0  0  0  0  0  0  0  0
    4.3336   -0.5238    0.5214 N   0  0  0  0  0  0  0  0  0  0  0  0
    3.5419   -0.8846    1.7351 C   0  0  1  0  0  0  0  0  0  0  0  0
    2.5839    0.1705    2.2837 C   0  0  0  0  0  0  0  0  0  0  0  0
    2.6253    1.3816    2.0786 O   0  0  0  0  0  0  0  0  0  0  0  0
    1.6820   -0.4644    3.0889 O   0  0  0  0  0  0  0  0  0  0  0  0
    1.7344   -1.8131    2.9068 C   0  0  0  0  0  0  0  0  0  0  0  0
    1.1604   -2.6688    3.5865 O   0  0  0  0  0  0  0  0  0  0  0  0
    2.5624   -2.1249    1.6709 C   0  0  2  0  0  0  0  0  0  0  0  0
    4.1841   -1.5429   -0.4801 C   0  0  1  0  0  0  0  0  0  0  0  0
    4.5207   -0.9991   -1.9118 C   0  0  0  0  0  0  0  0  0  0  0  0
    4.1207   -3.8241   -2.4633 H   0  0  0  0  0  0  0  0  0  0  0  0
    5.0204   -5.2702   -2.2099 H   0  0  0  0  0  0  0  0  0  0  0  0
    5.9011   -3.7627   -2.4434 H   0  0  0  0  0  0  0  0  0  0  0  0
    5.7726   -4.6831   -0.0708 H   0  0  0  0  0  0  0  0  0  0  0  0
    2.8087   -4.6031   -0.5702 H   0  0  0  0  0  0  0  0  0  0  0  0
    3.7071   -5.5356    0.5298 H   0  0  0  0  0  0  0  0  0  0  0  0
    2.8888   -3.1883    0.5343 H   0  0  0  0  0  0  0  0  0  0  0  0
    7.3820   -1.8994    0.0931 H   0  0  0  0  0  0  0  0  0  0  0  0
    6.2086    0.4334    0.7958 H   0  0  0  0  0  0  0  0  0  0  0  0
    4.2634   -1.0371    2.5346 H   0  0  0  0  0  0  0  0  0  0  0  0
    1.8061   -1.9035    0.9139 H   0  0  0  0  0  0  0  0  0  0  0  0
    3.1448   -1.8012   -0.6616 H   0  0  0  0  0  0  0  0  0  0  0  0
    4.3239   -1.7323   -2.6853 H   0  0  0  0  0  0  0  0  0  0  0  0
    5.5480   -0.6627   -2.0413 H   0  0  0  0  0  0  0  0  0  0  0  0
    3.8848   -0.1511   -2.1556 H   0  0  0  0  0  0  0  0  0  0  0  0
  1  2  1  0
  1 21  1  0
  1 22  1  0
  1 23  1  0
  2  8  1  0
  2  3  1  0
  2 24  1  1
  3  4  1  0
  3 25  1  0
  3 26  1  0
  4  5  1  0
  4 27  1  6
  4 18  1  0
  5  6  2  0
  5  7  1  0
  7  8  1  0
  8 19  1  0
  8  9  1  6
  9 10  2  0
  9 28  1  0
 10 11  1  0
 10 29  1  0
 11 19  1  0
 11 12  1  0
 12 13  1  0
 12 30  1  1
 12 18  1  0
 13 14  2  0
 13 15  1  0
 15 16  1  0
 16 18  1  0
 16 17  2  0
 18 31  1  6
 19 20  1  0
 19 32  1  6
 20 33  1  0
 20 34  1  0
 20 35  1  0
M  END
>  <i_m_ct_stereo_status>  (183) 
1

>  <s_m_source_file>  (183) 
/var/tmp/pbs.5083858.sched01/tmp24im8byh/75nnsl7p92.sdf

>  <i_m_source_file_index>  (183) 
1

>  <i_lp_mmshare_version>  (183) 
48012

>  <i_f3d_flags>  (183) 
0

>  <s_epik_input>  (183) 
W0NIM11bQ0BASF0oQzEyMylbQ0gyXVtDQEhdKEMoPU8pTzEpYzRjKE4oW0NIXT1bQ0hdMilbQ0BIXTNbQ0gzXSljKFtPSF0pb2M0W09IXQ==

>  <s_epik_cmdline>  (183) 
J2VwaWtfcHl0aG9uJywgJy1waHQnLCAnMi4wJywgJy1waCcsICc3LjAnLCAnLXRuJywgJzgnLCAnLW1hJywgJzIwMCcsICctaW1hZScsICc8aW5maWxlLm1hZT4nLCAnLW9tYWUnLCAnPG91dGZpbGUubWFlPic=

>  <r_lp_tautomer_probability>  (183) 
1

>  <r_epik_Ionization_Penalty>  (183) 
2.28409e-09

>  <r_epik_Ionization_Penalty_Charging>  (183) 
2.26913e-09

>  <r_epik_Ionization_Penalty_Neutral>  (183) 
1.49584e-11

>  <r_epik_State_Penalty>  (183) 
-0

>  <r_epik_Charging_Adjusted_Penalty>  (183) 
2.26913e-09

>  <i_epik_Tot_Q>  (183) 
0

>  <i_epik_Tot_abs_Q>  (183) 
0

>  <s_epik_Chemistry_Notes>  (183) 
This compound has an ester and may undergo hydrolysis at high or low pH. This compound has an imine and may undergo hydrolysis.

>  <s_lp_Force_Field>  (183) 
OPLS3e

>  <r_lp_Energy>  (183) 
160.86

>  <b_lp_Chiralities_Consistent>  (183) 
1

>  <s_lp_Variant>  (183) 
55:0-1

>  <s_i_glide_gridfile>  (183) 
pfpi4k_grid

>  <i_i_glide_lignum>  (183) 
1

>  <i_i_glide_rotatable_bonds>  (183) 
0

>  <r_i_docking_score>  (183) 
-3.14074

>  <r_i_glide_ligand_efficiency>  (183) 
-0.157037

>  <r_i_glide_ligand_efficiency_sa>  (183) 
-0.426264

>  <r_i_glide_ligand_efficiency_ln>  (183) 
-0.786023

>  <r_i_glide_gscore>  (183) 
-3.14074

>  <r_i_glide_lipo>  (183) 
-0.199785

>  <r_i_glide_hbond>  (183) 
0

>  <r_i_glide_metal>  (183) 
-0

>  <r_i_glide_rewards>  (183) 
-1.69637

>  <r_i_glide_evdw>  (183) 
-21.8049

>  <r_i_glide_ecoul>  (183) 
-0.916517

>  <r_i_glide_erotb>  (183) 
0

>  <r_i_glide_esite>  (183) 
-0.0168657

>  <r_i_glide_emodel>  (183) 
-26.9366

>  <r_i_glide_energy>  (183) 
-22.7214

>  <r_i_glide_einternal>  (183) 
0

>  <r_i_glide_intrahb_reward>  (183) 
-0

>  <i_i_glide_confnum>  (183) 
2

>  <i_i_glide_posenum>  (183) 
1

>  <r_i_glide_eff_state_penalty>  (183) 
0

>  <ligand_id>  (183) 
55

>  <original_smiles>  (183) 
CC1CC2C(=O)OC13C=CN(c1c(O)oc(O)c12)C3C

>  <smiles>  (183) 
[H]C1=C([H])C23OC(=O)C([H])(C([H])([H])C2([H])C([H])([H])[H])C2([H])C(=O)OC(=O)C2([H])N1C3([H])C([H])([H])[H]

$$$$
55:1:0
     RDKit          3D

 35 38  0  0  1  0  0  0  0  0999 V2000
    5.5332   -0.4218    1.0721 C   0  0  0  0  0  0  0  0  0  0  0  0
    5.0823   -1.8643    0.7973 C   0  0  2  0  0  0  0  0  0  0  0  0
    5.6971   -2.7779    1.8561 C   0  0  0  0  0  0  0  0  0  0  0  0
    6.1239   -4.0499    1.1716 C   0  0  2  0  0  0  0  0  0  0  0  0
    7.1811   -3.5937    0.0755 C   0  0  0  0  0  0  0  0  0  0  0  0
    8.2812   -4.1241    0.0640 O   0  0  0  0  0  0  0  0  0  0  0  0
    6.7445   -2.5509   -0.8090 O   0  0  0  0  0  0  0  0  0  0  0  0
    5.3511   -2.3464   -0.6984 C   0  0  2  0  0  0  0  0  0  0  0  0
    4.3348   -1.5429   -1.4427 C   0  0  0  0  0  0  0  0  0  0  0  0
    3.2570   -2.3434   -1.4849 C   0  0  0  0  0  0  0  0  0  0  0  0
    3.5051   -3.6944   -1.1367 N   0  0  0  0  0  0  0  0  0  0  0  0
    3.4897   -4.2885    0.2400 C   0  0  1  0  0  0  0  0  0  0  0  0
    2.5104   -5.4335    0.4816 C   0  0  0  0  0  0  0  0  0  0  0  0
    1.4446   -5.6153   -0.1176 O   0  0  0  0  0  0  0  0  0  0  0  0
    2.9153   -6.1258    1.5803 O   0  0  0  0  0  0  0  0  0  0  0  0
    4.1783   -5.7366    1.9300 C   0  0  0  0  0  0  0  0  0  0  0  0
    4.7780   -6.0333    2.9636 O   0  0  0  0  0  0  0  0  0  0  0  0
    4.8157   -4.9261    0.8177 C   0  0  2  0  0  0  0  0  0  0  0  0
    4.8754   -3.6476   -1.5031 C   0  0  1  0  0  0  0  0  0  0  0  0
    5.0853   -3.6537   -3.0614 C   0  0  0  0  0  0  0  0  0  0  0  0
    6.6071   -0.2978    0.9270 H   0  0  0  0  0  0  0  0  0  0  0  0
    5.3086   -0.1451    2.1026 H   0  0  0  0  0  0  0  0  0  0  0  0
    5.0207    0.3102    0.4510 H   0  0  0  0  0  0  0  0  0  0  0  0
    4.0154   -1.7916    0.9952 H   0  0  0  0  0  0  0  0  0  0  0  0
    6.5643   -2.2998    2.3221 H   0  0  0  0  0  0  0  0  0  0  0  0
    4.9927   -2.9669    2.6658 H   0  0  0  0  0  0  0  0  0  0  0  0
    6.6913   -4.6309    1.8937 H   0  0  0  0  0  0  0  0  0  0  0  0
    4.4135   -0.4989   -1.7348 H   0  0  0  0  0  0  0  0  0  0  0  0
    2.2711   -2.1303   -1.8930 H   0  0  0  0  0  0  0  0  0  0  0  0
    3.1386   -3.5188    0.9132 H   0  0  0  0  0  0  0  0  0  0  0  0
    5.1507   -5.7453    0.1857 H   0  0  0  0  0  0  0  0  0  0  0  0
    5.3959   -4.5981   -1.3778 H   0  0  0  0  0  0  0  0  0  0  0  0
    6.1452   -3.5715   -3.3099 H   0  0  0  0  0  0  0  0  0  0  0  0
    4.5632   -2.8713   -3.6249 H   0  0  0  0  0  0  0  0  0  0  0  0
    4.7401   -4.6045   -3.4792 H   0  0  0  0  0  0  0  0  0  0  0  0
  1  2  1  0
  1 21  1  0
  1 22  1  0
  1 23  1  0
  2  8  1  0
  2  3  1  0
  2 24  1  1
  3  4  1  0
  3 25  1  0
  3 26  1  0
  4  5  1  0
  4 27  1  1
  4 18  1  0
  5  6  2  0
  5  7  1  0
  7  8  1  0
  8 19  1  0
  8  9  1  6
  9 10  2  0
  9 28  1  0
 10 11  1  0
 10 29  1  0
 11 19  1  0
 11 12  1  0
 12 13  1  0
 12 30  1  1
 12 18  1  0
 13 14  2  0
 13 15  1  0
 15 16  1  0
 16 18  1  0
 16 17  2  0
 18 31  1  6
 19 20  1  0
 19 32  1  1
 20 33  1  0
 20 34  1  0
 20 35  1  0
M  END
>  <i_m_ct_stereo_status>  (184) 
1

>  <s_m_source_file>  (184) 
/var/tmp/pbs.5083858.sched01/tmp24im8byh/75nnsl7p92.sdf

>  <i_m_source_file_index>  (184) 
2

>  <i_lp_mmshare_version>  (184) 
48012

>  <i_f3d_flags>  (184) 
0

>  <s_epik_input>  (184) 
W0NIM11bQ0BASF0oQzEyMylbQ0gyXVtDQEhdKEMoPU8pTzEpYzRjKE4oW0NIXT1bQ0hdMilbQ0BIXTNbQ0gzXSljKFtPSF0pb2M0W09IXQ==

>  <s_epik_cmdline>  (184) 
J2VwaWtfcHl0aG9uJywgJy1waHQnLCAnMi4wJywgJy1waCcsICc3LjAnLCAnLXRuJywgJzgnLCAnLW1hJywgJzIwMCcsICctaW1hZScsICc8aW5maWxlLm1hZT4nLCAnLW9tYWUnLCAnPG91dGZpbGUubWFlPic=

>  <r_lp_tautomer_probability>  (184) 
1

>  <r_epik_Ionization_Penalty>  (184) 
2.28409e-09

>  <r_epik_Ionization_Penalty_Charging>  (184) 
2.26913e-09

>  <r_epik_Ionization_Penalty_Neutral>  (184) 
1.49584e-11

>  <r_epik_State_Penalty>  (184) 
-0

>  <r_epik_Charging_Adjusted_Penalty>  (184) 
2.26913e-09

>  <i_epik_Tot_Q>  (184) 
0

>  <i_epik_Tot_abs_Q>  (184) 
0

>  <s_epik_Chemistry_Notes>  (184) 
This compound has an ester and may undergo hydrolysis at high or low pH. This compound has an imine and may undergo hydrolysis.

>  <s_lp_Force_Field>  (184) 
OPLS3e

>  <r_lp_Energy>  (184) 
113.233

>  <b_lp_Chiralities_Consistent>  (184) 
1

>  <s_lp_Variant>  (184) 
55:0-2

>  <s_i_glide_gridfile>  (184) 
pfpi4k_grid

>  <i_i_glide_lignum>  (184) 
2

>  <i_i_glide_rotatable_bonds>  (184) 
0

>  <r_i_docking_score>  (184) 
-4.24509

>  <r_i_glide_ligand_efficiency>  (184) 
-0.212255

>  <r_i_glide_ligand_efficiency_sa>  (184) 
-0.576148

>  <r_i_glide_ligand_efficiency_ln>  (184) 
-1.06241

>  <r_i_glide_gscore>  (184) 
-4.24509

>  <r_i_glide_lipo>  (184) 
-0.485999

>  <r_i_glide_hbond>  (184) 
-0.262553

>  <r_i_glide_metal>  (184) 
-0

>  <r_i_glide_rewards>  (184) 
-1.7385

>  <r_i_glide_evdw>  (184) 
-23.6729

>  <r_i_glide_ecoul>  (184) 
-3.50048

>  <r_i_glide_erotb>  (184) 
0

>  <r_i_glide_esite>  (184) 
-0.04933

>  <r_i_glide_emodel>  (184) 
-34.4869

>  <r_i_glide_energy>  (184) 
-27.1733

>  <r_i_glide_einternal>  (184) 
0

>  <r_i_glide_intrahb_reward>  (184) 
-0

>  <i_i_glide_confnum>  (184) 
1

>  <i_i_glide_posenum>  (184) 
3

>  <r_i_glide_eff_state_penalty>  (184) 
0

>  <ligand_id>  (184) 
55

>  <original_smiles>  (184) 
CC1CC2C(=O)OC13C=CN(c1c(O)oc(O)c12)C3C

>  <smiles>  (184) 
[H]C1=C([H])C23OC(=O)C([H])(C([H])([H])C2([H])C([H])([H])[H])C2([H])C(=O)OC(=O)C2([H])N1C3([H])C([H])([H])[H]

$$$$
55:1:1
     RDKit          3D

 35 38  0  0  1  0  0  0  0  0999 V2000
    3.7055   -1.3835    3.3562 C   0  0  0  0  0  0  0  0  0  0  0  0
    3.8281   -1.8938    1.9047 C   0  0  2  0  0  0  0  0  0  0  0  0
    2.6870   -2.8764    1.6303 C   0  0  0  0  0  0  0  0  0  0  0  0
    3.2459   -4.0028    0.7924 C   0  0  2  0  0  0  0  0  0  0  0  0
    4.4170   -4.6325    1.6714 C   0  0  0  0  0  0  0  0  0  0  0  0
    4.4354   -5.8329    1.9197 O   0  0  0  0  0  0  0  0  0  0  0  0
    5.3905   -3.7087    2.1682 O   0  0  0  0  0  0  0  0  0  0  0  0
    5.2785   -2.4602    1.5195 C   0  0  2  0  0  0  0  0  0  0  0  0
    6.0737   -1.1964    1.4926 C   0  0  0  0  0  0  0  0  0  0  0  0
    5.9755   -0.7960    0.2002 C   0  0  0  0  0  0  0  0  0  0  0  0
    5.5457   -1.7997   -0.6932 N   0  0  0  0  0  0  0  0  0  0  0  0
    4.1128   -2.0799   -1.0463 C   0  0  1  0  0  0  0  0  0  0  0  0
    3.7683   -1.9719   -2.5232 C   0  0  0  0  0  0  0  0  0  0  0  0
    4.3936   -1.3383   -3.3756 O   0  0  0  0  0  0  0  0  0  0  0  0
    2.6187   -2.6671   -2.7400 O   0  0  0  0  0  0  0  0  0  0  0  0
    2.3163   -3.4538   -1.6728 C   0  0  0  0  0  0  0  0  0  0  0  0
    1.2670   -4.0758   -1.5130 O   0  0  0  0  0  0  0  0  0  0  0  0
    3.5009   -3.5025   -0.7159 C   0  0  2  0  0  0  0  0  0  0  0  0
    5.9526   -2.8879    0.1287 C   0  0  1  0  0  0  0  0  0  0  0  0
    7.5011   -3.1375    0.1085 C   0  0  0  0  0  0  0  0  0  0  0  0
    3.8592   -2.1789    4.0876 H   0  0  0  0  0  0  0  0  0  0  0  0
    2.7080   -0.9747    3.5226 H   0  0  0  0  0  0  0  0  0  0  0  0
    4.4073   -0.5779    3.5710 H   0  0  0  0  0  0  0  0  0  0  0  0
    3.6068   -0.9903    1.3386 H   0  0  0  0  0  0  0  0  0  0  0  0
    2.2811   -3.2848    2.5625 H   0  0  0  0  0  0  0  0  0  0  0  0
    1.8583   -2.3885    1.1237 H   0  0  0  0  0  0  0  0  0  0  0  0
    2.4988   -4.7891    0.7426 H   0  0  0  0  0  0  0  0  0  0  0  0
    6.4607   -0.6528    2.3426 H   0  0  0  0  0  0  0  0  0  0  0  0
    6.3400    0.1326   -0.2095 H   0  0  0  0  0  0  0  0  0  0  0  0
    3.5012   -1.3139   -0.5864 H   0  0  0  0  0  0  0  0  0  0  0  0
    4.0651   -4.2899   -1.2139 H   0  0  0  0  0  0  0  0  0  0  0  0
    5.7262   -3.8575   -0.3011 H   0  0  0  0  0  0  0  0  0  0  0  0
    7.7661   -3.9470    0.7891 H   0  0  0  0  0  0  0  0  0  0  0  0
    8.1198   -2.2785    0.3778 H   0  0  0  0  0  0  0  0  0  0  0  0
    7.8175   -3.4461   -0.8888 H   0  0  0  0  0  0  0  0  0  0  0  0
  1  2  1  0
  1 21  1  0
  1 22  1  0
  1 23  1  0
  2  8  1  0
  2  3  1  0
  2 24  1  6
  3  4  1  0
  3 25  1  0
  3 26  1  0
  4  5  1  0
  4 27  1  6
  4 18  1  0
  5  6  2  0
  5  7  1  0
  7  8  1  0
  8 19  1  0
  8  9  1  1
  9 10  2  0
  9 28  1  0
 10 11  1  0
 10 29  1  0
 11 19  1  0
 11 12  1  0
 12 13  1  0
 12 30  1  1
 12 18  1  0
 13 14  2  0
 13 15  1  0
 15 16  1  0
 16 18  1  0
 16 17  2  0
 18 31  1  6
 19 20  1  0
 19 32  1  6
 20 33  1  0
 20 34  1  0
 20 35  1  0
M  END
>  <i_m_ct_stereo_status>  (185) 
1

>  <s_m_source_file>  (185) 
/var/tmp/pbs.5083858.sched01/tmp24im8byh/75nnsl7p92.sdf

>  <i_m_source_file_index>  (185) 
2

>  <i_lp_mmshare_version>  (185) 
48012

>  <i_f3d_flags>  (185) 
0

>  <s_epik_input>  (185) 
W0NIM11bQ0BASF0oQzEyMylbQ0gyXVtDQEhdKEMoPU8pTzEpYzRjKE4oW0NIXT1bQ0hdMilbQ0BIXTNbQ0gzXSljKFtPSF0pb2M0W09IXQ==

>  <s_epik_cmdline>  (185) 
J2VwaWtfcHl0aG9uJywgJy1waHQnLCAnMi4wJywgJy1waCcsICc3LjAnLCAnLXRuJywgJzgnLCAnLW1hJywgJzIwMCcsICctaW1hZScsICc8aW5maWxlLm1hZT4nLCAnLW9tYWUnLCAnPG91dGZpbGUubWFlPic=

>  <r_lp_tautomer_probability>  (185) 
1

>  <r_epik_Ionization_Penalty>  (185) 
2.28409e-09

>  <r_epik_Ionization_Penalty_Charging>  (185) 
2.26913e-09

>  <r_epik_Ionization_Penalty_Neutral>  (185) 
1.49584e-11

>  <r_epik_State_Penalty>  (185) 
-0

>  <r_epik_Charging_Adjusted_Penalty>  (185) 
2.26913e-09

>  <i_epik_Tot_Q>  (185) 
0

>  <i_epik_Tot_abs_Q>  (185) 
0

>  <s_epik_Chemistry_Notes>  (185) 
This compound has an ester and may undergo hydrolysis at high or low pH. This compound has an imine and may undergo hydrolysis.

>  <s_lp_Force_Field>  (185) 
OPLS3e

>  <r_lp_Energy>  (185) 
113.233

>  <b_lp_Chiralities_Consistent>  (185) 
1

>  <s_lp_Variant>  (185) 
55:0-2

>  <s_i_glide_gridfile>  (185) 
pfpi4k_grid

>  <i_i_glide_lignum>  (185) 
2

>  <i_i_glide_rotatable_bonds>  (185) 
0

>  <r_i_docking_score>  (185) 
-4.08374

>  <r_i_glide_ligand_efficiency>  (185) 
-0.204187

>  <r_i_glide_ligand_efficiency_sa>  (185) 
-0.554248

>  <r_i_glide_ligand_efficiency_ln>  (185) 
-1.02202

>  <r_i_glide_gscore>  (185) 
-4.08374

>  <r_i_glide_lipo>  (185) 
-0.530582

>  <r_i_glide_hbond>  (185) 
-0.00884643

>  <r_i_glide_metal>  (185) 
-0

>  <r_i_glide_rewards>  (185) 
-1.73372

>  <r_i_glide_evdw>  (185) 
-23.7157

>  <r_i_glide_ecoul>  (185) 
-3.79793

>  <r_i_glide_erotb>  (185) 
0

>  <r_i_glide_esite>  (185) 
-0.0551149

>  <r_i_glide_emodel>  (185) 
-34.595

>  <r_i_glide_energy>  (185) 
-27.5136

>  <r_i_glide_einternal>  (185) 
0

>  <r_i_glide_intrahb_reward>  (185) 
-0

>  <i_i_glide_confnum>  (185) 
1

>  <i_i_glide_posenum>  (185) 
1

>  <r_i_glide_eff_state_penalty>  (185) 
0

>  <ligand_id>  (185) 
55

>  <original_smiles>  (185) 
CC1CC2C(=O)OC13C=CN(c1c(O)oc(O)c12)C3C

>  <smiles>  (185) 
[H]C1=C([H])C23OC(=O)C([H])(C([H])([H])C2([H])C([H])([H])[H])C2([H])C(=O)OC(=O)C2([H])N1C3([H])C([H])([H])[H]

$$$$
55:1:2
     RDKit          3D

 35 38  0  0  1  0  0  0  0  0999 V2000
    4.6592   -3.2193   -2.7066 C   0  0  0  0  0  0  0  0  0  0  0  0
    4.3446   -2.9080   -1.2254 C   0  0  2  0  0  0  0  0  0  0  0  0
    4.4532   -1.3957   -1.0053 C   0  0  0  0  0  0  0  0  0  0  0  0
    5.1147   -1.1723    0.3356 C   0  0  2  0  0  0  0  0  0  0  0  0
    6.5255   -1.9054    0.2314 C   0  0  0  0  0  0  0  0  0  0  0  0
    7.5631   -1.3037    0.4765 O   0  0  0  0  0  0  0  0  0  0  0  0
    6.4988   -3.2618   -0.1999 O   0  0  0  0  0  0  0  0  0  0  0  0
    5.1898   -3.7779   -0.1703 C   0  0  2  0  0  0  0  0  0  0  0  0
    4.5831   -5.1300   -0.3300 C   0  0  0  0  0  0  0  0  0  0  0  0
    3.5805   -5.1539    0.5844 C   0  0  0  0  0  0  0  0  0  0  0  0
    3.6840   -4.1491    1.5680 N   0  0  0  0  0  0  0  0  0  0  0  0
    3.1080   -2.7699    1.4635 C   0  0  1  0  0  0  0  0  0  0  0  0
    2.1275   -2.3878    2.5655 C   0  0  0  0  0  0  0  0  0  0  0  0
    1.4873   -3.1652    3.2730 O   0  0  0  0  0  0  0  0  0  0  0  0
    2.0256   -1.0332    2.5931 O   0  0  0  0  0  0  0  0  0  0  0  0
    3.0270   -0.4651    1.8638 C   0  0  0  0  0  0  0  0  0  0  0  0
    3.1247    0.7244    1.5749 O   0  0  0  0  0  0  0  0  0  0  0  0
    4.0734   -1.5141    1.5143 C   0  0  2  0  0  0  0  0  0  0  0  0
    5.0887   -3.9702    1.4203 C   0  0  1  0  0  0  0  0  0  0  0  0
    5.9361   -5.1239    2.0732 C   0  0  0  0  0  0  0  0  0  0  0  0
    5.6937   -2.9897   -2.9687 H   0  0  0  0  0  0  0  0  0  0  0  0
    4.0134   -2.6241   -3.3540 H   0  0  0  0  0  0  0  0  0  0  0  0
    4.4686   -4.2617   -2.9547 H   0  0  0  0  0  0  0  0  0  0  0  0
    3.2916   -3.1676   -1.1688 H   0  0  0  0  0  0  0  0  0  0  0  0
    5.0583   -0.9224   -1.7848 H   0  0  0  0  0  0  0  0  0  0  0  0
    3.4741   -0.9216   -1.0535 H   0  0  0  0  0  0  0  0  0  0  0  0
    5.3451   -0.1121    0.4195 H   0  0  0  0  0  0  0  0  0  0  0  0
    4.7807   -5.8293   -1.1288 H   0  0  0  0  0  0  0  0  0  0  0  0
    2.8385   -5.9249    0.7217 H   0  0  0  0  0  0  0  0  0  0  0  0
    2.5024   -2.7161    0.5639 H   0  0  0  0  0  0  0  0  0  0  0  0
    4.6411   -1.5059    2.4457 H   0  0  0  0  0  0  0  0  0  0  0  0
    5.4976   -3.2159    2.0790 H   0  0  0  0  0  0  0  0  0  0  0  0
    7.0011   -4.9689    1.8948 H   0  0  0  0  0  0  0  0  0  0  0  0
    5.6977   -6.1346    1.7298 H   0  0  0  0  0  0  0  0  0  0  0  0
    5.7884   -5.1240    3.1545 H   0  0  0  0  0  0  0  0  0  0  0  0
  1  2  1  0
  1 21  1  0
  1 22  1  0
  1 23  1  0
  2  8  1  0
  2  3  1  0
  2 24  1  6
  3  4  1  0
  3 25  1  0
  3 26  1  0
  4  5  1  0
  4 27  1  6
  4 18  1  0
  5  6  2  0
  5  7  1  0
  7  8  1  0
  8 19  1  0
  8  9  1  6
  9 10  2  0
  9 28  1  0
 10 11  1  0
 10 29  1  0
 11 19  1  0
 11 12  1  0
 12 13  1  0
 12 30  1  6
 12 18  1  0
 13 14  2  0
 13 15  1  0
 15 16  1  0
 16 18  1  0
 16 17  2  0
 18 31  1  1
 19 20  1  0
 19 32  1  1
 20 33  1  0
 20 34  1  0
 20 35  1  0
M  END
>  <i_m_ct_stereo_status>  (186) 
1

>  <s_m_source_file>  (186) 
/var/tmp/pbs.5083858.sched01/tmp24im8byh/75nnsl7p92.sdf

>  <i_m_source_file_index>  (186) 
2

>  <i_lp_mmshare_version>  (186) 
48012

>  <i_f3d_flags>  (186) 
0

>  <s_epik_input>  (186) 
W0NIM11bQ0BASF0oQzEyMylbQ0gyXVtDQEhdKEMoPU8pTzEpYzRjKE4oW0NIXT1bQ0hdMilbQ0BIXTNbQ0gzXSljKFtPSF0pb2M0W09IXQ==

>  <s_epik_cmdline>  (186) 
J2VwaWtfcHl0aG9uJywgJy1waHQnLCAnMi4wJywgJy1waCcsICc3LjAnLCAnLXRuJywgJzgnLCAnLW1hJywgJzIwMCcsICctaW1hZScsICc8aW5maWxlLm1hZT4nLCAnLW9tYWUnLCAnPG91dGZpbGUubWFlPic=

>  <r_lp_tautomer_probability>  (186) 
1

>  <r_epik_Ionization_Penalty>  (186) 
2.28409e-09

>  <r_epik_Ionization_Penalty_Charging>  (186) 
2.26913e-09

>  <r_epik_Ionization_Penalty_Neutral>  (186) 
1.49584e-11

>  <r_epik_State_Penalty>  (186) 
-0

>  <r_epik_Charging_Adjusted_Penalty>  (186) 
2.26913e-09

>  <i_epik_Tot_Q>  (186) 
0

>  <i_epik_Tot_abs_Q>  (186) 
0

>  <s_epik_Chemistry_Notes>  (186) 
This compound has an ester and may undergo hydrolysis at high or low pH. This compound has an imine and may undergo hydrolysis.

>  <s_lp_Force_Field>  (186) 
OPLS3e

>  <r_lp_Energy>  (186) 
113.233

>  <b_lp_Chiralities_Consistent>  (186) 
1

>  <s_lp_Variant>  (186) 
55:0-2

>  <s_i_glide_gridfile>  (186) 
pfpi4k_grid

>  <i_i_glide_lignum>  (186) 
2

>  <i_i_glide_rotatable_bonds>  (186) 
0

>  <r_i_docking_score>  (186) 
-3.2494

>  <r_i_glide_ligand_efficiency>  (186) 
-0.16247

>  <r_i_glide_ligand_efficiency_sa>  (186) 
-0.441011

>  <r_i_glide_ligand_efficiency_ln>  (186) 
-0.813217

>  <r_i_glide_gscore>  (186) 
-3.2494

>  <r_i_glide_lipo>  (186) 
-0.28904

>  <r_i_glide_hbond>  (186) 
-0.0314053

>  <r_i_glide_metal>  (186) 
-0

>  <r_i_glide_rewards>  (186) 
-1.53883

>  <r_i_glide_evdw>  (186) 
-24.7423

>  <r_i_glide_ecoul>  (186) 
-0.785588

>  <r_i_glide_erotb>  (186) 
0

>  <r_i_glide_esite>  (186) 
-0.0351668

>  <r_i_glide_emodel>  (186) 
-31.1517

>  <r_i_glide_energy>  (186) 
-25.5279

>  <r_i_glide_einternal>  (186) 
0

>  <r_i_glide_intrahb_reward>  (186) 
-0

>  <i_i_glide_confnum>  (186) 
2

>  <i_i_glide_posenum>  (186) 
40

>  <r_i_glide_eff_state_penalty>  (186) 
0

>  <ligand_id>  (186) 
55

>  <original_smiles>  (186) 
CC1CC2C(=O)OC13C=CN(c1c(O)oc(O)c12)C3C

>  <smiles>  (186) 
[H]C1=C([H])C23OC(=O)C([H])(C([H])([H])C2([H])C([H])([H])[H])C2([H])C(=O)OC(=O)C2([H])N1C3([H])C([H])([H])[H]

$$$$
55:2:0
     RDKit          3D

 35 38  0  0  1  0  0  0  0  0999 V2000
    4.3634   -2.8284   -3.4531 C   0  0  0  0  0  0  0  0  0  0  0  0
    3.7885   -2.8744   -2.0080 C   0  0  2  0  0  0  0  0  0  0  0  0
    3.8829   -1.5066   -1.2607 C   0  0  0  0  0  0  0  0  0  0  0  0
    5.1795   -1.3628   -0.4278 C   0  0  2  0  0  0  0  0  0  0  0  0
    6.1655   -2.4256   -0.8670 C   0  0  0  0  0  0  0  0  0  0  0  0
    7.3711   -2.1848   -0.9002 O   0  0  0  0  0  0  0  0  0  0  0  0
    5.5739   -3.6074   -1.2321 O   0  0  0  0  0  0  0  0  0  0  0  0
    4.2050   -4.1557   -1.1120 C   0  0  2  0  0  0  0  0  0  0  0  0
    2.9382   -3.8849   -0.2489 C   0  0  0  0  0  0  0  0  0  0  0  0
    3.0328   -3.6673    1.0438 C   0  0  0  0  0  0  0  0  0  0  0  0
    4.3098   -3.8036    1.4305 N   0  0  0  0  0  0  0  0  0  0  0  0
    5.0502   -2.6392    1.9694 C   0  0  2  0  0  0  0  0  0  0  0  0
    4.3745   -2.1044    3.2489 C   0  0  0  0  0  0  0  0  0  0  0  0
    4.3600   -2.6952    4.3271 O   0  0  0  0  0  0  0  0  0  0  0  0
    3.7572   -0.9228    3.0038 O   0  0  0  0  0  0  0  0  0  0  0  0
    4.0333   -0.4789    1.7726 C   0  0  0  0  0  0  0  0  0  0  0  0
    3.5650    0.5218    1.2275 O   0  0  0  0  0  0  0  0  0  0  0  0
    5.0964   -1.3484    1.1177 C   0  0  2  0  0  0  0  0  0  0  0  0
    4.8802   -4.5950    0.3265 C   0  0  1  0  0  0  0  0  0  0  0  0
    4.5774   -6.1142    0.5515 C   0  0  0  0  0  0  0  0  0  0  0  0
    5.4259   -2.5852   -3.5002 H   0  0  0  0  0  0  0  0  0  0  0  0
    3.8506   -2.0593   -4.0363 H   0  0  0  0  0  0  0  0  0  0  0  0
    4.2181   -3.7796   -3.9654 H   0  0  0  0  0  0  0  0  0  0  0  0
    2.7325   -2.9463   -2.3043 H   0  0  0  0  0  0  0  0  0  0  0  0
    3.8197   -0.6891   -1.9812 H   0  0  0  0  0  0  0  0  0  0  0  0
    3.0189   -1.3582   -0.6255 H   0  0  0  0  0  0  0  0  0  0  0  0
    5.6065   -0.4095   -0.7208 H   0  0  0  0  0  0  0  0  0  0  0  0
    1.9569   -3.9732   -0.6927 H   0  0  0  0  0  0  0  0  0  0  0  0
    2.2600   -3.5461    1.7954 H   0  0  0  0  0  0  0  0  0  0  0  0
    6.0638   -2.9505    2.2080 H   0  0  0  0  0  0  0  0  0  0  0  0
    6.0206   -0.8529    1.4221 H   0  0  0  0  0  0  0  0  0  0  0  0
    5.9654   -4.6472    0.4906 H   0  0  0  0  0  0  0  0  0  0  0  0
    5.0121   -6.7121   -0.2519 H   0  0  0  0  0  0  0  0  0  0  0  0
    3.5123   -6.3486    0.5694 H   0  0  0  0  0  0  0  0  0  0  0  0
    5.0024   -6.4732    1.4908 H   0  0  0  0  0  0  0  0  0  0  0  0
  1  2  1  0
  1 21  1  0
  1 22  1  0
  1 23  1  0
  2  8  1  0
  2  3  1  0
  2 24  1  6
  3  4  1  0
  3 25  1  0
  3 26  1  0
  4  5  1  0
  4 27  1  6
  4 18  1  0
  5  6  2  0
  5  7  1  0
  7  8  1  0
  8 19  1  0
  8  9  1  6
  9 10  2  0
  9 28  1  0
 10 11  1  0
 10 29  1  0
 11 19  1  0
 11 12  1  0
 12 13  1  0
 12 30  1  1
 12 18  1  0
 13 14  2  0
 13 15  1  0
 15 16  1  0
 16 18  1  0
 16 17  2  0
 18 31  1  1
 19 20  1  0
 19 32  1  6
 20 33  1  0
 20 34  1  0
 20 35  1  0
M  END
>  <i_m_ct_stereo_status>  (187) 
1

>  <s_m_source_file>  (187) 
/var/tmp/pbs.5083858.sched01/tmp24im8byh/75nnsl7p92.sdf

>  <i_m_source_file_index>  (187) 
3

>  <i_lp_mmshare_version>  (187) 
48012

>  <i_f3d_flags>  (187) 
0

>  <s_epik_input>  (187) 
W0NIM11bQ0BASF0oQzEyMylbQ0gyXVtDQEhdKEMoPU8pTzEpYzRjKE4oW0NIXT1bQ0hdMilbQ0BIXTNbQ0gzXSljKFtPSF0pb2M0W09IXQ==

>  <s_epik_cmdline>  (187) 
J2VwaWtfcHl0aG9uJywgJy1waHQnLCAnMi4wJywgJy1waCcsICc3LjAnLCAnLXRuJywgJzgnLCAnLW1hJywgJzIwMCcsICctaW1hZScsICc8aW5maWxlLm1hZT4nLCAnLW9tYWUnLCAnPG91dGZpbGUubWFlPic=

>  <r_lp_tautomer_probability>  (187) 
1

>  <r_epik_Ionization_Penalty>  (187) 
2.28409e-09

>  <r_epik_Ionization_Penalty_Charging>  (187) 
2.26913e-09

>  <r_epik_Ionization_Penalty_Neutral>  (187) 
1.49584e-11

>  <r_epik_State_Penalty>  (187) 
-0

>  <r_epik_Charging_Adjusted_Penalty>  (187) 
2.26913e-09

>  <i_epik_Tot_Q>  (187) 
0

>  <i_epik_Tot_abs_Q>  (187) 
0

>  <s_epik_Chemistry_Notes>  (187) 
This compound has an ester and may undergo hydrolysis at high or low pH. This compound has an imine and may undergo hydrolysis.

>  <s_lp_Force_Field>  (187) 
OPLS3e

>  <r_lp_Energy>  (187) 
155.795

>  <b_lp_Chiralities_Consistent>  (187) 
1

>  <s_lp_Variant>  (187) 
55:0-3

>  <s_i_glide_gridfile>  (187) 
pfpi4k_grid

>  <i_i_glide_lignum>  (187) 
3

>  <i_i_glide_rotatable_bonds>  (187) 
0

>  <r_i_docking_score>  (187) 
-4.00142

>  <r_i_glide_ligand_efficiency>  (187) 
-0.200071

>  <r_i_glide_ligand_efficiency_sa>  (187) 
-0.543077

>  <r_i_glide_ligand_efficiency_ln>  (187) 
-1.00142

>  <r_i_glide_gscore>  (187) 
-4.00142

>  <r_i_glide_lipo>  (187) 
-0.467631

>  <r_i_glide_hbond>  (187) 
-0.16

>  <r_i_glide_metal>  (187) 
-0

>  <r_i_glide_rewards>  (187) 
-1.65343

>  <r_i_glide_evdw>  (187) 
-24.6078

>  <r_i_glide_ecoul>  (187) 
-3.08793

>  <r_i_glide_erotb>  (187) 
0

>  <r_i_glide_esite>  (187) 
-0.0267801

>  <r_i_glide_emodel>  (187) 
-34.3225

>  <r_i_glide_energy>  (187) 
-27.6958

>  <r_i_glide_einternal>  (187) 
0

>  <r_i_glide_intrahb_reward>  (187) 
-0

>  <i_i_glide_confnum>  (187) 
1

>  <i_i_glide_posenum>  (187) 
1

>  <r_i_glide_eff_state_penalty>  (187) 
0

>  <ligand_id>  (187) 
55

>  <original_smiles>  (187) 
CC1CC2C(=O)OC13C=CN(c1c(O)oc(O)c12)C3C

>  <smiles>  (187) 
[H]C1=C([H])C23OC(=O)C([H])(C([H])([H])C2([H])C([H])([H])[H])C2([H])C(=O)OC(=O)C2([H])N1C3([H])C([H])([H])[H]

$$$$
55:2:1
     RDKit          3D

 35 38  0  0  1  0  0  0  0  0999 V2000
    3.7831   -1.0655   -2.7230 C   0  0  0  0  0  0  0  0  0  0  0  0
    4.2428   -2.3664   -2.0117 C   0  0  2  0  0  0  0  0  0  0  0  0
    3.1036   -3.0603   -1.1836 C   0  0  0  0  0  0  0  0  0  0  0  0
    3.0747   -2.6174    0.2945 C   0  0  2  0  0  0  0  0  0  0  0  0
    3.8816   -1.3558    0.4536 C   0  0  0  0  0  0  0  0  0  0  0  0
    3.5613   -0.4717    1.2449 O   0  0  0  0  0  0  0  0  0  0  0  0
    4.9969   -1.2995   -0.3796 O   0  0  0  0  0  0  0  0  0  0  0  0
    5.6639   -2.2994   -1.2454 C   0  0  2  0  0  0  0  0  0  0  0  0
    5.7177   -3.8425   -1.3699 C   0  0  0  0  0  0  0  0  0  0  0  0
    5.8203   -4.6061   -0.3027 C   0  0  0  0  0  0  0  0  0  0  0  0
    5.9609   -3.8395    0.7904 N   0  0  0  0  0  0  0  0  0  0  0  0
    4.9203   -3.8782    1.8378 C   0  0  2  0  0  0  0  0  0  0  0  0
    4.7988   -5.2894    2.4382 C   0  0  0  0  0  0  0  0  0  0  0  0
    5.6462   -5.8257    3.1502 O   0  0  0  0  0  0  0  0  0  0  0  0
    3.6499   -5.8896    2.0237 O   0  0  0  0  0  0  0  0  0  0  0  0
    2.8754   -5.0294    1.3340 C   0  0  0  0  0  0  0  0  0  0  0  0
    1.8207   -5.3099    0.7612 O   0  0  0  0  0  0  0  0  0  0  0  0
    3.4604   -3.6261    1.4137 C   0  0  2  0  0  0  0  0  0  0  0  0
    6.4074   -2.5657    0.2042 C   0  0  1  0  0  0  0  0  0  0  0  0
    7.9492   -2.5955   -0.0367 C   0  0  0  0  0  0  0  0  0  0  0  0
    3.4555   -0.2878   -2.0399 H   0  0  0  0  0  0  0  0  0  0  0  0
    2.9282   -1.2696   -3.3701 H   0  0  0  0  0  0  0  0  0  0  0  0
    4.5773   -0.6440   -3.3397 H   0  0  0  0  0  0  0  0  0  0  0  0
    4.3127   -2.9718   -2.9213 H   0  0  0  0  0  0  0  0  0  0  0  0
    2.1409   -2.8511   -1.6476 H   0  0  0  0  0  0  0  0  0  0  0  0
    3.1907   -4.1432   -1.2447 H   0  0  0  0  0  0  0  0  0  0  0  0
    2.0497   -2.3168    0.4922 H   0  0  0  0  0  0  0  0  0  0  0  0
    5.7616   -4.2970   -2.3449 H   0  0  0  0  0  0  0  0  0  0  0  0
    5.9484   -5.6795   -0.2230 H   0  0  0  0  0  0  0  0  0  0  0  0
    5.1996   -3.1790    2.6277 H   0  0  0  0  0  0  0  0  0  0  0  0
    2.9811   -3.2160    2.3024 H   0  0  0  0  0  0  0  0  0  0  0  0
    6.4010   -1.8224    1.0216 H   0  0  0  0  0  0  0  0  0  0  0  0
    8.3086   -1.6434   -0.4218 H   0  0  0  0  0  0  0  0  0  0  0  0
    8.2632   -3.3607   -0.7490 H   0  0  0  0  0  0  0  0  0  0  0  0
    8.4974   -2.7778    0.8823 H   0  0  0  0  0  0  0  0  0  0  0  0
  1  2  1  0
  1 21  1  0
  1 22  1  0
  1 23  1  0
  2  8  1  0
  2  3  1  0
  2 24  1  6
  3  4  1  0
  3 25  1  0
  3 26  1  0
  4  5  1  0
  4 27  1  1
  4 18  1  0
  5  6  2  0
  5  7  1  0
  7  8  1  0
  8 19  1  0
  8  9  1  6
  9 10  2  0
  9 28  1  0
 10 11  1  0
 10 29  1  0
 11 19  1  0
 11 12  1  0
 12 13  1  0
 12 30  1  1
 12 18  1  0
 13 14  2  0
 13 15  1  0
 15 16  1  0
 16 18  1  0
 16 17  2  0
 18 31  1  1
 19 20  1  0
 19 32  1  1
 20 33  1  0
 20 34  1  0
 20 35  1  0
M  END
>  <i_m_ct_stereo_status>  (188) 
1

>  <s_m_source_file>  (188) 
/var/tmp/pbs.5083858.sched01/tmp24im8byh/75nnsl7p92.sdf

>  <i_m_source_file_index>  (188) 
3

>  <i_lp_mmshare_version>  (188) 
48012

>  <i_f3d_flags>  (188) 
0

>  <s_epik_input>  (188) 
W0NIM11bQ0BASF0oQzEyMylbQ0gyXVtDQEhdKEMoPU8pTzEpYzRjKE4oW0NIXT1bQ0hdMilbQ0BIXTNbQ0gzXSljKFtPSF0pb2M0W09IXQ==

>  <s_epik_cmdline>  (188) 
J2VwaWtfcHl0aG9uJywgJy1waHQnLCAnMi4wJywgJy1waCcsICc3LjAnLCAnLXRuJywgJzgnLCAnLW1hJywgJzIwMCcsICctaW1hZScsICc8aW5maWxlLm1hZT4nLCAnLW9tYWUnLCAnPG91dGZpbGUubWFlPic=

>  <r_lp_tautomer_probability>  (188) 
1

>  <r_epik_Ionization_Penalty>  (188) 
2.28409e-09

>  <r_epik_Ionization_Penalty_Charging>  (188) 
2.26913e-09

>  <r_epik_Ionization_Penalty_Neutral>  (188) 
1.49584e-11

>  <r_epik_State_Penalty>  (188) 
-0

>  <r_epik_Charging_Adjusted_Penalty>  (188) 
2.26913e-09

>  <i_epik_Tot_Q>  (188) 
0

>  <i_epik_Tot_abs_Q>  (188) 
0

>  <s_epik_Chemistry_Notes>  (188) 
This compound has an ester and may undergo hydrolysis at high or low pH. This compound has an imine and may undergo hydrolysis.

>  <s_lp_Force_Field>  (188) 
OPLS3e

>  <r_lp_Energy>  (188) 
155.795

>  <b_lp_Chiralities_Consistent>  (188) 
1

>  <s_lp_Variant>  (188) 
55:0-3

>  <s_i_glide_gridfile>  (188) 
pfpi4k_grid

>  <i_i_glide_lignum>  (188) 
3

>  <i_i_glide_rotatable_bonds>  (188) 
0

>  <r_i_docking_score>  (188) 
-3.38626

>  <r_i_glide_ligand_efficiency>  (188) 
-0.169313

>  <r_i_glide_ligand_efficiency_sa>  (188) 
-0.459587

>  <r_i_glide_ligand_efficiency_ln>  (188) 
-0.84747

>  <r_i_glide_gscore>  (188) 
-3.38626

>  <r_i_glide_lipo>  (188) 
-0.274204

>  <r_i_glide_hbond>  (188) 
-0.0947865

>  <r_i_glide_metal>  (188) 
-0

>  <r_i_glide_rewards>  (188) 
-1.62796

>  <r_i_glide_evdw>  (188) 
-22.1973

>  <r_i_glide_ecoul>  (188) 
-1.52618

>  <r_i_glide_erotb>  (188) 
0

>  <r_i_glide_esite>  (188) 
-0.050519

>  <r_i_glide_emodel>  (188) 
-29.3283

>  <r_i_glide_energy>  (188) 
-23.7235

>  <r_i_glide_einternal>  (188) 
0

>  <r_i_glide_intrahb_reward>  (188) 
-0

>  <i_i_glide_confnum>  (188) 
1

>  <i_i_glide_posenum>  (188) 
21

>  <r_i_glide_eff_state_penalty>  (188) 
0

>  <ligand_id>  (188) 
55

>  <original_smiles>  (188) 
CC1CC2C(=O)OC13C=CN(c1c(O)oc(O)c12)C3C

>  <smiles>  (188) 
[H]C1=C([H])C23OC(=O)C([H])(C([H])([H])C2([H])C([H])([H])[H])C2([H])C(=O)OC(=O)C2([H])N1C3([H])C([H])([H])[H]

$$$$
55:2:2
     RDKit          3D

 35 38  0  0  1  0  0  0  0  0999 V2000
    3.5404   -1.6987   -2.4928 C   0  0  0  0  0  0  0  0  0  0  0  0
    4.0179   -2.8273   -1.5329 C   0  0  2  0  0  0  0  0  0  0  0  0
    2.9708   -3.1789   -0.4227 C   0  0  0  0  0  0  0  0  0  0  0  0
    3.1654   -2.3640    0.8760 C   0  0  2  0  0  0  0  0  0  0  0  0
    4.0740   -1.1952    0.5983 C   0  0  0  0  0  0  0  0  0  0  0  0
    3.9287   -0.1111    1.1555 O   0  0  0  0  0  0  0  0  0  0  0  0
    5.0677   -1.4690   -0.3425 O   0  0  0  0  0  0  0  0  0  0  0  0
    5.5345   -2.7240   -0.9896 C   0  0  2  0  0  0  0  0  0  0  0  0
    5.4768   -4.2530   -0.7085 C   0  0  0  0  0  0  0  0  0  0  0  0
    5.6949   -4.7222    0.5050 C   0  0  0  0  0  0  0  0  0  0  0  0
    6.0167   -3.7095    1.3289 N   0  0  0  0  0  0  0  0  0  0  0  0
    5.1309   -3.3787    2.4652 C   0  0  2  0  0  0  0  0  0  0  0  0
    4.9897   -4.5732    3.4291 C   0  0  0  0  0  0  0  0  0  0  0  0
    5.8766   -5.0113    4.1566 O   0  0  0  0  0  0  0  0  0  0  0  0
    3.7537   -5.1197    3.3299 O   0  0  0  0  0  0  0  0  0  0  0  0
    2.9590   -4.3832    2.5399 C   0  0  0  0  0  0  0  0  0  0  0  0
    1.8193   -4.6802    2.1861 O   0  0  0  0  0  0  0  0  0  0  0  0
    3.6482   -3.0809    2.1682 C   0  0  2  0  0  0  0  0  0  0  0  0
    6.4573   -2.6762    0.3773 C   0  0  1  0  0  0  0  0  0  0  0  0
    7.9468   -2.9093   -0.0306 C   0  0  0  0  0  0  0  0  0  0  0  0
    3.3506   -0.7416   -2.0027 H   0  0  0  0  0  0  0  0  0  0  0  0
    2.5955   -1.9801   -2.9613 H   0  0  0  0  0  0  0  0  0  0  0  0
    4.2630   -1.5279   -3.2910 H   0  0  0  0  0  0  0  0  0  0  0  0
    3.9226   -3.6476   -2.2505 H   0  0  0  0  0  0  0  0  0  0  0  0
    1.9643   -3.0234   -0.8103 H   0  0  0  0  0  0  0  0  0  0  0  0
    2.9863   -4.2469   -0.2024 H   0  0  0  0  0  0  0  0  0  0  0  0
    2.1987   -1.9239    1.1024 H   0  0  0  0  0  0  0  0  0  0  0  0
    5.3493   -4.9545   -1.5172 H   0  0  0  0  0  0  0  0  0  0  0  0
    5.7732   -5.7450    0.8527 H   0  0  0  0  0  0  0  0  0  0  0  0
    5.5632   -2.5354    3.0029 H   0  0  0  0  0  0  0  0  0  0  0  0
    3.3281   -2.4143    2.9679 H   0  0  0  0  0  0  0  0  0  0  0  0
    6.6142   -1.7546    0.9665 H   0  0  0  0  0  0  0  0  0  0  0  0
    8.2976   -2.1329   -0.7121 H   0  0  0  0  0  0  0  0  0  0  0  0
    8.1092   -3.8611   -0.5397 H   0  0  0  0  0  0  0  0  0  0  0  0
    8.6066   -2.8947    0.8386 H   0  0  0  0  0  0  0  0  0  0  0  0
  1  2  1  0
  1 21  1  0
  1 22  1  0
  1 23  1  0
  2  8  1  0
  2  3  1  0
  2 24  1  6
  3  4  1  0
  3 25  1  0
  3 26  1  0
  4  5  1  0
  4 27  1  1
  4 18  1  0
  5  6  2  0
  5  7  1  0
  7  8  1  0
  8 19  1  0
  8  9  1  6
  9 10  2  0
  9 28  1  0
 10 11  1  0
 10 29  1  0
 11 19  1  0
 11 12  1  0
 12 13  1  0
 12 30  1  1
 12 18  1  0
 13 14  2  0
 13 15  1  0
 15 16  1  0
 16 18  1  0
 16 17  2  0
 18 31  1  1
 19 20  1  0
 19 32  1  1
 20 33  1  0
 20 34  1  0
 20 35  1  0
M  END
>  <i_m_ct_stereo_status>  (189) 
1

>  <s_m_source_file>  (189) 
/var/tmp/pbs.5083858.sched01/tmp24im8byh/75nnsl7p92.sdf

>  <i_m_source_file_index>  (189) 
3

>  <i_lp_mmshare_version>  (189) 
48012

>  <i_f3d_flags>  (189) 
0

>  <s_epik_input>  (189) 
W0NIM11bQ0BASF0oQzEyMylbQ0gyXVtDQEhdKEMoPU8pTzEpYzRjKE4oW0NIXT1bQ0hdMilbQ0BIXTNbQ0gzXSljKFtPSF0pb2M0W09IXQ==

>  <s_epik_cmdline>  (189) 
J2VwaWtfcHl0aG9uJywgJy1waHQnLCAnMi4wJywgJy1waCcsICc3LjAnLCAnLXRuJywgJzgnLCAnLW1hJywgJzIwMCcsICctaW1hZScsICc8aW5maWxlLm1hZT4nLCAnLW9tYWUnLCAnPG91dGZpbGUubWFlPic=

>  <r_lp_tautomer_probability>  (189) 
1

>  <r_epik_Ionization_Penalty>  (189) 
2.28409e-09

>  <r_epik_Ionization_Penalty_Charging>  (189) 
2.26913e-09

>  <r_epik_Ionization_Penalty_Neutral>  (189) 
1.49584e-11

>  <r_epik_State_Penalty>  (189) 
-0

>  <r_epik_Charging_Adjusted_Penalty>  (189) 
2.26913e-09

>  <i_epik_Tot_Q>  (189) 
0

>  <i_epik_Tot_abs_Q>  (189) 
0

>  <s_epik_Chemistry_Notes>  (189) 
This compound has an ester and may undergo hydrolysis at high or low pH. This compound has an imine and may undergo hydrolysis.

>  <s_lp_Force_Field>  (189) 
OPLS3e

>  <r_lp_Energy>  (189) 
155.795

>  <b_lp_Chiralities_Consistent>  (189) 
1

>  <s_lp_Variant>  (189) 
55:0-3

>  <s_i_glide_gridfile>  (189) 
pfpi4k_grid

>  <i_i_glide_lignum>  (189) 
3

>  <i_i_glide_rotatable_bonds>  (189) 
0

>  <r_i_docking_score>  (189) 
-3.28491

>  <r_i_glide_ligand_efficiency>  (189) 
-0.164245

>  <r_i_glide_ligand_efficiency_sa>  (189) 
-0.445831

>  <r_i_glide_ligand_efficiency_ln>  (189) 
-0.822104

>  <r_i_glide_gscore>  (189) 
-3.28491

>  <r_i_glide_lipo>  (189) 
-0.415623

>  <r_i_glide_hbond>  (189) 
-0.00338373

>  <r_i_glide_metal>  (189) 
-0

>  <r_i_glide_rewards>  (189) 
-1.64409

>  <r_i_glide_evdw>  (189) 
-22.8136

>  <r_i_glide_ecoul>  (189) 
-0.434465

>  <r_i_glide_erotb>  (189) 
0

>  <r_i_glide_esite>  (189) 
-0.0159597

>  <r_i_glide_emodel>  (189) 
-28.6773

>  <r_i_glide_energy>  (189) 
-23.2481

>  <r_i_glide_einternal>  (189) 
0

>  <r_i_glide_intrahb_reward>  (189) 
-0

>  <i_i_glide_confnum>  (189) 
1

>  <i_i_glide_posenum>  (189) 
12

>  <r_i_glide_eff_state_penalty>  (189) 
0

>  <ligand_id>  (189) 
55

>  <original_smiles>  (189) 
CC1CC2C(=O)OC13C=CN(c1c(O)oc(O)c12)C3C

>  <smiles>  (189) 
[H]C1=C([H])C23OC(=O)C([H])(C([H])([H])C2([H])C([H])([H])[H])C2([H])C(=O)OC(=O)C2([H])N1C3([H])C([H])([H])[H]

$$$$
55:3:0
     RDKit          3D

 35 38  0  0  1  0  0  0  0  0999 V2000
    4.6541   -2.7558   -2.7542 C   0  0  0  0  0  0  0  0  0  0  0  0
    4.0828   -2.6515   -1.3270 C   0  0  2  0  0  0  0  0  0  0  0  0
    4.4864   -1.3113   -0.5501 C   0  0  0  0  0  0  0  0  0  0  0  0
    5.6506   -1.4363    0.5419 C   0  0  2  0  0  0  0  0  0  0  0  0
    6.6412   -2.3865   -0.0355 C   0  0  0  0  0  0  0  0  0  0  0  0
    7.8341   -2.1346   -0.1637 O   0  0  0  0  0  0  0  0  0  0  0  0
    6.0475   -3.5082   -0.3367 O   0  0  0  0  0  0  0  0  0  0  0  0
    4.6060   -3.7048   -0.3500 C   0  0  2  0  0  0  0  0  0  0  0  0
    4.7073   -5.1952   -0.3015 C   0  0  0  0  0  0  0  0  0  0  0  0
    4.7556   -5.4860    1.0243 C   0  0  0  0  0  0  0  0  0  0  0  0
    4.3677   -4.3966    1.8366 N   0  0  0  0  0  0  0  0  0  0  0  0
    5.2445   -3.4427    2.5705 C   0  0  2  0  0  0  0  0  0  0  0  0
    4.6333   -3.1379    3.9503 C   0  0  0  0  0  0  0  0  0  0  0  0
    4.3199   -3.9916    4.7785 O   0  0  0  0  0  0  0  0  0  0  0  0
    4.4489   -1.7982    4.1327 O   0  0  0  0  0  0  0  0  0  0  0  0
    4.8615   -1.0731    3.0715 C   0  0  0  0  0  0  0  0  0  0  0  0
    4.7424    0.1414    2.9276 O   0  0  0  0  0  0  0  0  0  0  0  0
    5.5157   -1.9709    2.0447 C   0  0  2  0  0  0  0  0  0  0  0  0
    3.6051   -3.7113    0.8625 C   0  0  1  0  0  0  0  0  0  0  0  0
    2.5622   -2.6579    1.3344 C   0  0  0  0  0  0  0  0  0  0  0  0
    5.7378   -2.6630   -2.7851 H   0  0  0  0  0  0  0  0  0  0  0  0
    4.2394   -1.9729   -3.3872 H   0  0  0  0  0  0  0  0  0  0  0  0
    4.3896   -3.7142   -3.1995 H   0  0  0  0  0  0  0  0  0  0  0  0
    2.9960   -2.7011   -1.4225 H   0  0  0  0  0  0  0  0  0  0  0  0
    4.8174   -0.5856   -1.2955 H   0  0  0  0  0  0  0  0  0  0  0  0
    3.6175   -0.8152   -0.1263 H   0  0  0  0  0  0  0  0  0  0  0  0
    6.1432   -0.4644    0.5904 H   0  0  0  0  0  0  0  0  0  0  0  0
    4.8903   -5.8452   -1.1430 H   0  0  0  0  0  0  0  0  0  0  0  0
    4.9308   -6.4391    1.4957 H   0  0  0  0  0  0  0  0  0  0  0  0
    6.2019   -3.9430    2.7184 H   0  0  0  0  0  0  0  0  0  0  0  0
    6.5435   -1.8243    2.3786 H   0  0  0  0  0  0  0  0  0  0  0  0
    2.7836   -4.3966    0.5862 H   0  0  0  0  0  0  0  0  0  0  0  0
    1.8429   -2.4578    0.5392 H   0  0  0  0  0  0  0  0  0  0  0  0
    2.9157   -1.6917    1.6460 H   0  0  0  0  0  0  0  0  0  0  0  0
    1.9785   -3.0539    2.1668 H   0  0  0  0  0  0  0  0  0  0  0  0
  1  2  1  0
  1 21  1  0
  1 22  1  0
  1 23  1  0
  2  8  1  0
  2  3  1  0
  2 24  1  6
  3  4  1  0
  3 25  1  0
  3 26  1  0
  4  5  1  0
  4 27  1  1
  4 18  1  0
  5  6  2  0
  5  7  1  0
  7  8  1  0
  8 19  1  0
  8  9  1  6
  9 10  2  0
  9 28  1  0
 10 11  1  0
 10 29  1  0
 11 19  1  0
 11 12  1  0
 12 13  1  0
 12 30  1  1
 12 18  1  0
 13 14  2  0
 13 15  1  0
 15 16  1  0
 16 18  1  0
 16 17  2  0
 18 31  1  1
 19 20  1  0
 19 32  1  6
 20 33  1  0
 20 34  1  0
 20 35  1  0
M  END
>  <i_m_ct_stereo_status>  (190) 
1

>  <s_m_source_file>  (190) 
/var/tmp/pbs.5083858.sched01/tmp24im8byh/75nnsl7p92.sdf

>  <i_m_source_file_index>  (190) 
4

>  <i_lp_mmshare_version>  (190) 
48012

>  <i_f3d_flags>  (190) 
0

>  <s_epik_input>  (190) 
W0NIM11bQ0BASF0oQzEyMylbQ0gyXVtDQEhdKEMoPU8pTzEpYzRjKE4oW0NIXT1bQ0hdMilbQ0BIXTNbQ0gzXSljKFtPSF0pb2M0W09IXQ==

>  <s_epik_cmdline>  (190) 
J2VwaWtfcHl0aG9uJywgJy1waHQnLCAnMi4wJywgJy1waCcsICc3LjAnLCAnLXRuJywgJzgnLCAnLW1hJywgJzIwMCcsICctaW1hZScsICc8aW5maWxlLm1hZT4nLCAnLW9tYWUnLCAnPG91dGZpbGUubWFlPic=

>  <r_lp_tautomer_probability>  (190) 
1

>  <r_epik_Ionization_Penalty>  (190) 
2.28409e-09

>  <r_epik_Ionization_Penalty_Charging>  (190) 
2.26913e-09

>  <r_epik_Ionization_Penalty_Neutral>  (190) 
1.49584e-11

>  <r_epik_State_Penalty>  (190) 
-0

>  <r_epik_Charging_Adjusted_Penalty>  (190) 
2.26913e-09

>  <i_epik_Tot_Q>  (190) 
0

>  <i_epik_Tot_abs_Q>  (190) 
0

>  <s_epik_Chemistry_Notes>  (190) 
This compound has an ester and may undergo hydrolysis at high or low pH. This compound has an imine and may undergo hydrolysis.

>  <s_lp_Force_Field>  (190) 
OPLS3e

>  <r_lp_Energy>  (190) 
112.015

>  <b_lp_Chiralities_Consistent>  (190) 
1

>  <s_lp_Variant>  (190) 
55:0-4

>  <s_i_glide_gridfile>  (190) 
pfpi4k_grid

>  <i_i_glide_lignum>  (190) 
4

>  <i_i_glide_rotatable_bonds>  (190) 
0

>  <r_i_docking_score>  (190) 
-3.74914

>  <r_i_glide_ligand_efficiency>  (190) 
-0.187457

>  <r_i_glide_ligand_efficiency_sa>  (190) 
-0.508837

>  <r_i_glide_ligand_efficiency_ln>  (190) 
-0.938286

>  <r_i_glide_gscore>  (190) 
-3.74914

>  <r_i_glide_lipo>  (190) 
-0.419963

>  <r_i_glide_hbond>  (190) 
-0.140512

>  <r_i_glide_metal>  (190) 
-0

>  <r_i_glide_rewards>  (190) 
-1.69886

>  <r_i_glide_evdw>  (190) 
-22.2402

>  <r_i_glide_ecoul>  (190) 
-2.51867

>  <r_i_glide_erotb>  (190) 
0

>  <r_i_glide_esite>  (190) 
0

>  <r_i_glide_emodel>  (190) 
-30.2414

>  <r_i_glide_energy>  (190) 
-24.7589

>  <r_i_glide_einternal>  (190) 
0

>  <r_i_glide_intrahb_reward>  (190) 
-0

>  <i_i_glide_confnum>  (190) 
2

>  <i_i_glide_posenum>  (190) 
7

>  <r_i_glide_eff_state_penalty>  (190) 
0

>  <ligand_id>  (190) 
55

>  <original_smiles>  (190) 
CC1CC2C(=O)OC13C=CN(c1c(O)oc(O)c12)C3C

>  <smiles>  (190) 
[H]C1=C([H])C23OC(=O)C([H])(C([H])([H])C2([H])C([H])([H])[H])C2([H])C(=O)OC(=O)C2([H])N1C3([H])C([H])([H])[H]

$$$$
55:3:1
     RDKit          3D

 35 38  0  0  1  0  0  0  0  0999 V2000
    4.7670   -2.6113   -2.9395 C   0  0  0  0  0  0  0  0  0  0  0  0
    4.6314   -3.5593   -1.7362 C   0  0  2  0  0  0  0  0  0  0  0  0
    3.3011   -3.3465   -0.8732 C   0  0  0  0  0  0  0  0  0  0  0  0
    3.4602   -2.5464    0.5051 C   0  0  2  0  0  0  0  0  0  0  0  0
    4.4547   -1.4723    0.2382 C   0  0  0  0  0  0  0  0  0  0  0  0
    4.2755   -0.2862    0.5023 O   0  0  0  0  0  0  0  0  0  0  0  0
    5.5557   -1.9990   -0.2337 O   0  0  0  0  0  0  0  0  0  0  0  0
    5.6928   -3.3853   -0.6575 C   0  0  2  0  0  0  0  0  0  0  0  0
    7.1909   -3.3626   -0.5909 C   0  0  0  0  0  0  0  0  0  0  0  0
    7.4608   -3.7066    0.6973 C   0  0  0  0  0  0  0  0  0  0  0  0
    6.3518   -4.2641    1.3673 N   0  0  0  0  0  0  0  0  0  0  0  0
    5.4193   -3.6049    2.3286 C   0  0  2  0  0  0  0  0  0  0  0  0
    5.0787   -4.5774    3.4707 C   0  0  0  0  0  0  0  0  0  0  0  0
    5.9118   -5.1522    4.1730 O   0  0  0  0  0  0  0  0  0  0  0  0
    3.7329   -4.7552    3.5934 O   0  0  0  0  0  0  0  0  0  0  0  0
    3.0378   -4.0287    2.6964 C   0  0  0  0  0  0  0  0  0  0  0  0
    1.8210   -4.0691    2.5202 O   0  0  0  0  0  0  0  0  0  0  0  0
    3.9667   -3.1322    1.9083 C   0  0  2  0  0  0  0  0  0  0  0  0
    5.6430   -4.6916    0.2195 C   0  0  1  0  0  0  0  0  0  0  0  0
    4.5595   -5.7998    0.3604 C   0  0  0  0  0  0  0  0  0  0  0  0
    4.7095   -1.5606   -2.6582 H   0  0  0  0  0  0  0  0  0  0  0  0
    3.9747   -2.7974   -3.6636 H   0  0  0  0  0  0  0  0  0  0  0  0
    5.7189   -2.7723   -3.4431 H   0  0  0  0  0  0  0  0  0  0  0  0
    4.6416   -4.5731   -2.1401 H   0  0  0  0  0  0  0  0  0  0  0  0
    2.5955   -2.7863   -1.4903 H   0  0  0  0  0  0  0  0  0  0  0  0
    2.7703   -4.2816   -0.7161 H   0  0  0  0  0  0  0  0  0  0  0  0
    2.5064   -2.0504    0.6899 H   0  0  0  0  0  0  0  0  0  0  0  0
    7.8554   -2.9817   -1.3498 H   0  0  0  0  0  0  0  0  0  0  0  0
    8.4175   -3.7148    1.2003 H   0  0  0  0  0  0  0  0  0  0  0  0
    5.9530   -2.7506    2.7490 H   0  0  0  0  0  0  0  0  0  0  0  0
    3.8626   -2.2392    2.5275 H   0  0  0  0  0  0  0  0  0  0  0  0
    6.3019   -5.4234   -0.2770 H   0  0  0  0  0  0  0  0  0  0  0  0
    4.3416   -6.2553   -0.6073 H   0  0  0  0  0  0  0  0  0  0  0  0
    3.6058   -5.5099    0.7669 H   0  0  0  0  0  0  0  0  0  0  0  0
    4.9270   -6.6111    0.9931 H   0  0  0  0  0  0  0  0  0  0  0  0
  1  2  1  0
  1 21  1  0
  1 22  1  0
  1 23  1  0
  2  8  1  0
  2  3  1  0
  2 24  1  6
  3  4  1  0
  3 25  1  0
  3 26  1  0
  4  5  1  0
  4 27  1  1
  4 18  1  0
  5  6  2  0
  5  7  1  0
  7  8  1  0
  8 19  1  0
  8  9  1  6
  9 10  2  0
  9 28  1  0
 10 11  1  0
 10 29  1  0
 11 19  1  0
 11 12  1  0
 12 13  1  0
 12 30  1  1
 12 18  1  0
 13 14  2  0
 13 15  1  0
 15 16  1  0
 16 18  1  0
 16 17  2  0
 18 31  1  1
 19 20  1  0
 19 32  1  6
 20 33  1  0
 20 34  1  0
 20 35  1  0
M  END
>  <i_m_ct_stereo_status>  (191) 
1

>  <s_m_source_file>  (191) 
/var/tmp/pbs.5083858.sched01/tmp24im8byh/75nnsl7p92.sdf

>  <i_m_source_file_index>  (191) 
4

>  <i_lp_mmshare_version>  (191) 
48012

>  <i_f3d_flags>  (191) 
0

>  <s_epik_input>  (191) 
W0NIM11bQ0BASF0oQzEyMylbQ0gyXVtDQEhdKEMoPU8pTzEpYzRjKE4oW0NIXT1bQ0hdMilbQ0BIXTNbQ0gzXSljKFtPSF0pb2M0W09IXQ==

>  <s_epik_cmdline>  (191) 
J2VwaWtfcHl0aG9uJywgJy1waHQnLCAnMi4wJywgJy1waCcsICc3LjAnLCAnLXRuJywgJzgnLCAnLW1hJywgJzIwMCcsICctaW1hZScsICc8aW5maWxlLm1hZT4nLCAnLW9tYWUnLCAnPG91dGZpbGUubWFlPic=

>  <r_lp_tautomer_probability>  (191) 
1

>  <r_epik_Ionization_Penalty>  (191) 
2.28409e-09

>  <r_epik_Ionization_Penalty_Charging>  (191) 
2.26913e-09

>  <r_epik_Ionization_Penalty_Neutral>  (191) 
1.49584e-11

>  <r_epik_State_Penalty>  (191) 
-0

>  <r_epik_Charging_Adjusted_Penalty>  (191) 
2.26913e-09

>  <i_epik_Tot_Q>  (191) 
0

>  <i_epik_Tot_abs_Q>  (191) 
0

>  <s_epik_Chemistry_Notes>  (191) 
This compound has an ester and may undergo hydrolysis at high or low pH. This compound has an imine and may undergo hydrolysis.

>  <s_lp_Force_Field>  (191) 
OPLS3e

>  <r_lp_Energy>  (191) 
112.015

>  <b_lp_Chiralities_Consistent>  (191) 
1

>  <s_lp_Variant>  (191) 
55:0-4

>  <s_i_glide_gridfile>  (191) 
pfpi4k_grid

>  <i_i_glide_lignum>  (191) 
4

>  <i_i_glide_rotatable_bonds>  (191) 
0

>  <r_i_docking_score>  (191) 
-3.6229

>  <r_i_glide_ligand_efficiency>  (191) 
-0.181145

>  <r_i_glide_ligand_efficiency_sa>  (191) 
-0.491703

>  <r_i_glide_ligand_efficiency_ln>  (191) 
-0.906692

>  <r_i_glide_gscore>  (191) 
-3.6229

>  <r_i_glide_lipo>  (191) 
-0.800692

>  <r_i_glide_hbond>  (191) 
0

>  <r_i_glide_metal>  (191) 
-0

>  <r_i_glide_rewards>  (191) 
-1.6506

>  <r_i_glide_evdw>  (191) 
-22.7077

>  <r_i_glide_ecoul>  (191) 
-0.147873

>  <r_i_glide_erotb>  (191) 
0

>  <r_i_glide_esite>  (191) 
-0.0140405

>  <r_i_glide_emodel>  (191) 
-28.1461

>  <r_i_glide_energy>  (191) 
-22.8555

>  <r_i_glide_einternal>  (191) 
0

>  <r_i_glide_intrahb_reward>  (191) 
-0

>  <i_i_glide_confnum>  (191) 
1

>  <i_i_glide_posenum>  (191) 
15

>  <r_i_glide_eff_state_penalty>  (191) 
0

>  <ligand_id>  (191) 
55

>  <original_smiles>  (191) 
CC1CC2C(=O)OC13C=CN(c1c(O)oc(O)c12)C3C

>  <smiles>  (191) 
[H]C1=C([H])C23OC(=O)C([H])(C([H])([H])C2([H])C([H])([H])[H])C2([H])C(=O)OC(=O)C2([H])N1C3([H])C([H])([H])[H]

$$$$
55:3:2
     RDKit          3D

 35 38  0  0  1  0  0  0  0  0999 V2000
    4.7896   -1.1515   -2.0065 C   0  0  0  0  0  0  0  0  0  0  0  0
    4.1511   -1.2088   -0.6078 C   0  0  2  0  0  0  0  0  0  0  0  0
    5.0478   -0.5809    0.5566 C   0  0  0  0  0  0  0  0  0  0  0  0
    5.8305   -1.6111    1.4945 C   0  0  2  0  0  0  0  0  0  0  0  0
    6.2904   -2.7033    0.5951 C   0  0  0  0  0  0  0  0  0  0  0  0
    7.4566   -3.0849    0.5137 O   0  0  0  0  0  0  0  0  0  0  0  0
    5.2677   -3.2041   -0.0401 O   0  0  0  0  0  0  0  0  0  0  0  0
    3.9365   -2.6121   -0.0594 C   0  0  2  0  0  0  0  0  0  0  0  0
    3.2734   -3.8692   -0.5193 C   0  0  0  0  0  0  0  0  0  0  0  0
    2.9934   -4.5343    0.6306 C   0  0  0  0  0  0  0  0  0  0  0  0
    3.0793   -3.7177    1.7753 N   0  0  0  0  0  0  0  0  0  0  0  0
    4.2017   -3.6259    2.7535 C   0  0  2  0  0  0  0  0  0  0  0  0
    3.6311   -3.4887    4.1758 C   0  0  0  0  0  0  0  0  0  0  0  0
    2.8165   -4.2609    4.6787 O   0  0  0  0  0  0  0  0  0  0  0  0
    4.1073   -2.3724    4.8008 O   0  0  0  0  0  0  0  0  0  0  0  0
    4.9535   -1.6698    4.0205 C   0  0  0  0  0  0  0  0  0  0  0  0
    5.4389   -0.5690    4.2804 O   0  0  0  0  0  0  0  0  0  0  0  0
    5.2320   -2.4223    2.7380 C   0  0  2  0  0  0  0  0  0  0  0  0
    2.9045   -2.4734    1.1206 C   0  0  1  0  0  0  0  0  0  0  0  0
    2.4477   -1.2342    1.9436 C   0  0  0  0  0  0  0  0  0  0  0  0
    5.7705   -1.6208   -2.0459 H   0  0  0  0  0  0  0  0  0  0  0  0
    4.9069   -0.1178   -2.3279 H   0  0  0  0  0  0  0  0  0  0  0  0
    4.1547   -1.6493   -2.7377 H   0  0  0  0  0  0  0  0  0  0  0  0
    3.2074   -0.6650   -0.6735 H   0  0  0  0  0  0  0  0  0  0  0  0
    5.7995    0.0561    0.0881 H   0  0  0  0  0  0  0  0  0  0  0  0
    4.4878    0.1338    1.1533 H   0  0  0  0  0  0  0  0  0  0  0  0
    6.7248   -1.0945    1.8474 H   0  0  0  0  0  0  0  0  0  0  0  0
    3.2362   -4.2259   -1.5351 H   0  0  0  0  0  0  0  0  0  0  0  0
    2.6149   -5.5415    0.7437 H   0  0  0  0  0  0  0  0  0  0  0  0
    4.7587   -4.5623    2.6939 H   0  0  0  0  0  0  0  0  0  0  0  0
    6.1357   -2.9388    3.0611 H   0  0  0  0  0  0  0  0  0  0  0  0
    1.9014   -2.5201    0.6630 H   0  0  0  0  0  0  0  0  0  0  0  0
    2.0403   -0.4645    1.2847 H   0  0  0  0  0  0  0  0  0  0  0  0
    3.1844   -0.7346    2.5479 H   0  0  0  0  0  0  0  0  0  0  0  0
    1.6345   -1.5104    2.6176 H   0  0  0  0  0  0  0  0  0  0  0  0
  1  2  1  0
  1 21  1  0
  1 22  1  0
  1 23  1  0
  2  8  1  0
  2  3  1  0
  2 24  1  6
  3  4  1  0
  3 25  1  0
  3 26  1  0
  4  5  1  0
  4 27  1  1
  4 18  1  0
  5  6  2  0
  5  7  1  0
  7  8  1  0
  8 19  1  0
  8  9  1  6
  9 10  2  0
  9 28  1  0
 10 11  1  0
 10 29  1  0
 11 19  1  0
 11 12  1  0
 12 13  1  0
 12 30  1  1
 12 18  1  0
 13 14  2  0
 13 15  1  0
 15 16  1  0
 16 18  1  0
 16 17  2  0
 18 31  1  1
 19 20  1  0
 19 32  1  6
 20 33  1  0
 20 34  1  0
 20 35  1  0
M  END
>  <i_m_ct_stereo_status>  (192) 
1

>  <s_m_source_file>  (192) 
/var/tmp/pbs.5083858.sched01/tmp24im8byh/75nnsl7p92.sdf

>  <i_m_source_file_index>  (192) 
4

>  <i_lp_mmshare_version>  (192) 
48012

>  <i_f3d_flags>  (192) 
0

>  <s_epik_input>  (192) 
W0NIM11bQ0BASF0oQzEyMylbQ0gyXVtDQEhdKEMoPU8pTzEpYzRjKE4oW0NIXT1bQ0hdMilbQ0BIXTNbQ0gzXSljKFtPSF0pb2M0W09IXQ==

>  <s_epik_cmdline>  (192) 
J2VwaWtfcHl0aG9uJywgJy1waHQnLCAnMi4wJywgJy1waCcsICc3LjAnLCAnLXRuJywgJzgnLCAnLW1hJywgJzIwMCcsICctaW1hZScsICc8aW5maWxlLm1hZT4nLCAnLW9tYWUnLCAnPG91dGZpbGUubWFlPic=

>  <r_lp_tautomer_probability>  (192) 
1

>  <r_epik_Ionization_Penalty>  (192) 
2.28409e-09

>  <r_epik_Ionization_Penalty_Charging>  (192) 
2.26913e-09

>  <r_epik_Ionization_Penalty_Neutral>  (192) 
1.49584e-11

>  <r_epik_State_Penalty>  (192) 
-0

>  <r_epik_Charging_Adjusted_Penalty>  (192) 
2.26913e-09

>  <i_epik_Tot_Q>  (192) 
0

>  <i_epik_Tot_abs_Q>  (192) 
0

>  <s_epik_Chemistry_Notes>  (192) 
This compound has an ester and may undergo hydrolysis at high or low pH. This compound has an imine and may undergo hydrolysis.

>  <s_lp_Force_Field>  (192) 
OPLS3e

>  <r_lp_Energy>  (192) 
112.015

>  <b_lp_Chiralities_Consistent>  (192) 
1

>  <s_lp_Variant>  (192) 
55:0-4

>  <s_i_glide_gridfile>  (192) 
pfpi4k_grid

>  <i_i_glide_lignum>  (192) 
4

>  <i_i_glide_rotatable_bonds>  (192) 
0

>  <r_i_docking_score>  (192) 
-3.36637

>  <r_i_glide_ligand_efficiency>  (192) 
-0.168319

>  <r_i_glide_ligand_efficiency_sa>  (192) 
-0.456887

>  <r_i_glide_ligand_efficiency_ln>  (192) 
-0.842491

>  <r_i_glide_gscore>  (192) 
-3.36637

>  <r_i_glide_lipo>  (192) 
-0.37114

>  <r_i_glide_hbond>  (192) 
0

>  <r_i_glide_metal>  (192) 
-0

>  <r_i_glide_rewards>  (192) 
-1.69977

>  <r_i_glide_evdw>  (192) 
-20.0401

>  <r_i_glide_ecoul>  (192) 
-1.95361

>  <r_i_glide_erotb>  (192) 
0

>  <r_i_glide_esite>  (192) 
-0.000412537

>  <r_i_glide_emodel>  (192) 
-26.8767

>  <r_i_glide_energy>  (192) 
-21.9937

>  <r_i_glide_einternal>  (192) 
0

>  <r_i_glide_intrahb_reward>  (192) 
-0

>  <i_i_glide_confnum>  (192) 
1

>  <i_i_glide_posenum>  (192) 
11

>  <r_i_glide_eff_state_penalty>  (192) 
0

>  <ligand_id>  (192) 
55

>  <original_smiles>  (192) 
CC1CC2C(=O)OC13C=CN(c1c(O)oc(O)c12)C3C

>  <smiles>  (192) 
[H]C1=C([H])C23OC(=O)C([H])(C([H])([H])C2([H])C([H])([H])[H])C2([H])C(=O)OC(=O)C2([H])N1C3([H])C([H])([H])[H]

$$$$
56:0:0
     RDKit          3D

 33 36  0  0  1  0  0  0  0  0999 V2000
    4.3074   -0.5942    4.5000 O   0  0  0  0  0  0  0  0  0  0  0  0
    3.6257   -0.3796    3.4980 C   0  0  0  0  0  0  0  0  0  0  0  0
    2.2210    0.1283    3.6620 C   0  0  0  0  0  0  0  0  0  0  0  0
    1.3490   -0.4390    4.6266 C   0  0  0  0  0  0  0  0  0  0  0  0
    0.0663   -0.0384    4.8436 N   0  0  0  0  0  0  0  0  0  0  0  0
   -0.3781    0.9737    4.0863 C   0  0  0  0  0  0  0  0  0  0  0  0
   -1.6375    1.6140    4.0718 C   0  0  0  0  0  0  0  0  0  0  0  0
   -1.6889    2.5742    3.1670 N   0  0  0  0  0  0  0  0  0  0  0  0
   -0.4466    2.5406    2.5717 N   0  0  0  0  0  0  0  0  0  0  0  0
    0.4172    1.6002    3.1076 C   0  0  0  0  0  0  0  0  0  0  0  0
    1.7382    1.2122    2.8990 C   0  0  0  0  0  0  0  0  0  0  0  0
    4.0868   -0.5840    2.2403 N   0  0  0  0  0  0  0  0  0  0  0  0
    5.4917   -0.9155    1.9758 C   0  0  0  0  0  0  0  0  0  0  0  0
    5.5462   -2.3933    1.5492 C   0  0  0  0  0  0  0  0  0  0  0  0
    4.6984   -2.5923    0.3716 N   0  0  0  0  0  0  0  0  0  0  0  0
    4.7629   -3.5556   -0.5953 C   0  0  0  0  0  0  0  0  0  0  0  0
    3.7122   -3.3224   -1.4465 C   0  0  0  0  0  0  0  0  0  0  0  0
    3.0270   -2.2444   -0.9381 N   0  0  0  0  0  0  0  0  0  0  0  0
    3.6440   -1.7968    0.1617 C   0  0  0  0  0  0  0  0  0  0  0  0
    3.2392   -0.6417    1.0330 C   0  0  0  0  0  0  0  0  0  0  0  0
   -0.2029    3.2273    1.8297 H   0  0  0  0  0  0  0  0  0  0  0  0
    1.6913   -1.2540    5.2485 H   0  0  0  0  0  0  0  0  0  0  0  0
   -2.4605    1.3484    4.7140 H   0  0  0  0  0  0  0  0  0  0  0  0
    2.3462    1.7123    2.1629 H   0  0  0  0  0  0  0  0  0  0  0  0
    5.8889   -0.2769    1.1826 H   0  0  0  0  0  0  0  0  0  0  0  0
    6.1376   -0.7571    2.8363 H   0  0  0  0  0  0  0  0  0  0  0  0
    6.5588   -2.7029    1.2953 H   0  0  0  0  0  0  0  0  0  0  0  0
    5.1643   -3.0389    2.3461 H   0  0  0  0  0  0  0  0  0  0  0  0
    5.5339   -4.3202   -0.6081 H   0  0  0  0  0  0  0  0  0  0  0  0
    3.4056   -3.8509   -2.3394 H   0  0  0  0  0  0  0  0  0  0  0  0
    2.1830   -0.8238    1.2279 H   0  0  0  0  0  0  0  0  0  0  0  0
    3.3588    0.2836    0.4747 H   0  0  0  0  0  0  0  0  0  0  0  0
    2.1496   -1.8314   -1.2805 H   0  0  0  0  0  0  0  0  0  0  0  0
  1  2  2  0
  2 12  1  0
  2  3  1  0
  3 11  1  0
  3  4  2  0
  4 22  1  0
  4  5  1  0
  5  6  2  0
  6  7  1  0
  6 10  1  0
  7 23  1  0
  7  8  2  0
  8  9  1  0
  9 21  1  0
  9 10  1  0
 10 11  2  0
 11 24  1  0
 12 20  1  0
 12 13  1  0
 13 14  1  0
 13 25  1  0
 13 26  1  0
 14 15  1  0
 14 27  1  0
 14 28  1  0
 15 19  1  0
 15 16  1  0
 16 17  2  0
 16 29  1  0
 17 18  1  0
 17 30  1  0
 18 19  2  0
 18 33  1  0
 19 20  1  0
 20 31  1  0
 20 32  1  0
M  CHG  1  18   1
M  END
>  <i_m_ct_stereo_status>  (193) 
1

>  <s_m_source_file>  (193) 
/var/tmp/pbs.5083858.sched01/tmp24im8byh/75nnsl7p92.sdf

>  <i_m_source_file_index>  (193) 
5

>  <i_lp_mmshare_version>  (193) 
48012

>  <i_f3d_flags>  (193) 
0

>  <s_epik_input>  (193) 
W2NIXTFbY0hdbmMobjEyKVtDSDJdTihbQ0gyXVtDSDJdMilDKD1PKWMoW2NIXW4zKVtjSF1jKGMzNCluW25IXVtjSF00

>  <s_epik_cmdline>  (193) 
J2VwaWtfcHl0aG9uJywgJy1waHQnLCAnMi4wJywgJy1waCcsICc3LjAnLCAnLXRuJywgJzgnLCAnLW1hJywgJzIwMCcsICctaW1hZScsICc8aW5maWxlLm1hZT4nLCAnLW9tYWUnLCAnPG91dGZpbGUubWFlPic=

>  <r_lp_tautomer_probability>  (193) 
0.97908

>  <r_epik_Ionization_Penalty>  (193) 
0.282937

>  <r_epik_Ionization_Penalty_Charging>  (193) 
0

>  <r_epik_Ionization_Penalty_Neutral>  (193) 
0.282937

>  <r_epik_State_Penalty>  (193) 
0.285296

>  <r_epik_Charging_Adjusted_Penalty>  (193) 
0.285296

>  <i_epik_Tot_Q>  (193) 
1

>  <i_epik_Tot_abs_Q>  (193) 
1

>  <s_lp_Force_Field>  (193) 
OPLS3e

>  <r_lp_Energy>  (193) 
39.1547

>  <b_lp_Chiralities_Consistent>  (193) 
1

>  <s_lp_Variant>  (193) 
56:0-1

>  <s_i_glide_gridfile>  (193) 
pfpi4k_grid

>  <i_i_glide_lignum>  (193) 
5

>  <i_i_glide_rotatable_bonds>  (193) 
2

>  <r_i_docking_score>  (193) 
-4.7577

>  <r_i_glide_ligand_efficiency>  (193) 
-0.237885

>  <r_i_glide_ligand_efficiency_sa>  (193) 
-0.645719

>  <r_i_glide_ligand_efficiency_ln>  (193) 
-1.1907

>  <r_i_glide_gscore>  (193) 
-4.7577

>  <r_i_glide_lipo>  (193) 
-0.235511

>  <r_i_glide_hbond>  (193) 
-0.341426

>  <r_i_glide_metal>  (193) 
-0

>  <r_i_glide_rewards>  (193) 
-1.66652

>  <r_i_glide_evdw>  (193) 
-18.4121

>  <r_i_glide_ecoul>  (193) 
-12.3173

>  <r_i_glide_erotb>  (193) 
0.492755

>  <r_i_glide_esite>  (193) 
-0.238805

>  <r_i_glide_emodel>  (193) 
-43.4045

>  <r_i_glide_energy>  (193) 
-30.7294

>  <r_i_glide_einternal>  (193) 
0.37131

>  <r_i_glide_intrahb_reward>  (193) 
-0

>  <i_i_glide_confnum>  (193) 
5

>  <i_i_glide_posenum>  (193) 
2

>  <r_i_glide_eff_state_penalty>  (193) 
0

>  <ligand_id>  (193) 
56

>  <original_smiles>  (193) 
O=C(c1cnc2c[nH]nc2c1)N1CCn2ccnc2C1

>  <smiles>  (193) 
[H]c1nc2c([H])nn([H])c2c([H])c1C(=O)N1C([H])([H])c2n(c([H])c([H])[n+]2[H])C([H])([H])C1([H])[H]

$$$$
56:0:1
     RDKit          3D

 33 36  0  0  1  0  0  0  0  0999 V2000
    5.8155   -0.8395    2.5495 O   0  0  0  0  0  0  0  0  0  0  0  0
    4.7711   -1.0431    1.9314 C   0  0  0  0  0  0  0  0  0  0  0  0
    4.8867   -1.6321    0.5432 C   0  0  0  0  0  0  0  0  0  0  0  0
    5.7437   -2.7300    0.2591 C   0  0  0  0  0  0  0  0  0  0  0  0
    5.8944   -3.2958   -0.9821 N   0  0  0  0  0  0  0  0  0  0  0  0
    5.1329   -2.8006   -1.9769 C   0  0  0  0  0  0  0  0  0  0  0  0
    5.0074   -3.1489   -3.3431 C   0  0  0  0  0  0  0  0  0  0  0  0
    4.1521   -2.3581   -3.9943 N   0  0  0  0  0  0  0  0  0  0  0  0
    3.7073   -1.4942   -3.0240 N   0  0  0  0  0  0  0  0  0  0  0  0
    4.2957   -1.6925   -1.7892 C   0  0  0  0  0  0  0  0  0  0  0  0
    4.2092   -1.0781   -0.5527 C   0  0  0  0  0  0  0  0  0  0  0  0
    3.5278   -0.8247    2.4785 N   0  0  0  0  0  0  0  0  0  0  0  0
    3.4098   -0.4959    3.9220 C   0  0  0  0  0  0  0  0  0  0  0  0
    3.0238    0.9810    4.0328 C   0  0  0  0  0  0  0  0  0  0  0  0
    1.7803    1.2120    3.2883 N   0  0  0  0  0  0  0  0  0  0  0  0
    0.8640    2.2126    3.4283 C   0  0  0  0  0  0  0  0  0  0  0  0
   -0.0709    2.0167    2.4556 C   0  0  0  0  0  0  0  0  0  0  0  0
    0.3310    0.9273    1.7273 N   0  0  0  0  0  0  0  0  0  0  0  0
    1.4239    0.3951    2.2850 C   0  0  0  0  0  0  0  0  0  0  0  0
    2.1928   -0.8172    1.7973 C   0  0  0  0  0  0  0  0  0  0  0  0
    2.9983   -0.7991   -3.2217 H   0  0  0  0  0  0  0  0  0  0  0  0
    6.3569   -3.1438    1.0508 H   0  0  0  0  0  0  0  0  0  0  0  0
    5.5966   -3.9155   -3.8086 H   0  0  0  0  0  0  0  0  0  0  0  0
    3.6129   -0.2099   -0.4756 H   0  0  0  0  0  0  0  0  0  0  0  0
    2.6340   -1.1264    4.3701 H   0  0  0  0  0  0  0  0  0  0  0  0
    4.3114   -0.7103    4.5032 H   0  0  0  0  0  0  0  0  0  0  0  0
    2.8567    1.2777    5.0581 H   0  0  0  0  0  0  0  0  0  0  0  0
    3.8036    1.6124    3.6120 H   0  0  0  0  0  0  0  0  0  0  0  0
    0.9306    2.9743    4.2008 H   0  0  0  0  0  0  0  0  0  0  0  0
   -0.9507    2.5915    2.1920 H   0  0  0  0  0  0  0  0  0  0  0  0
    2.1817   -0.6062    0.7622 H   0  0  0  0  0  0  0  0  0  0  0  0
    1.5916   -1.7242    2.0132 H   0  0  0  0  0  0  0  0  0  0  0  0
   -0.0933    0.6043    0.8481 H   0  0  0  0  0  0  0  0  0  0  0  0
  1  2  2  0
  2 12  1  0
  2  3  1  0
  3 11  1  0
  3  4  2  0
  4 22  1  0
  4  5  1  0
  5  6  2  0
  6  7  1  0
  6 10  1  0
  7 23  1  0
  7  8  2  0
  8  9  1  0
  9 21  1  0
  9 10  1  0
 10 11  2  0
 11 24  1  0
 12 20  1  0
 12 13  1  0
 13 14  1  0
 13 25  1  0
 13 26  1  0
 14 15  1  0
 14 27  1  0
 14 28  1  0
 15 19  1  0
 15 16  1  0
 16 17  2  0
 16 29  1  0
 17 18  1  0
 17 30  1  0
 18 19  2  0
 18 33  1  0
 19 20  1  0
 20 31  1  0
 20 32  1  0
M  CHG  1  18   1
M  END
>  <i_m_ct_stereo_status>  (194) 
1

>  <s_m_source_file>  (194) 
/var/tmp/pbs.5083858.sched01/tmp24im8byh/75nnsl7p92.sdf

>  <i_m_source_file_index>  (194) 
5

>  <i_lp_mmshare_version>  (194) 
48012

>  <i_f3d_flags>  (194) 
0

>  <s_epik_input>  (194) 
W2NIXTFbY0hdbmMobjEyKVtDSDJdTihbQ0gyXVtDSDJdMilDKD1PKWMoW2NIXW4zKVtjSF1jKGMzNCluW25IXVtjSF00

>  <s_epik_cmdline>  (194) 
J2VwaWtfcHl0aG9uJywgJy1waHQnLCAnMi4wJywgJy1waCcsICc3LjAnLCAnLXRuJywgJzgnLCAnLW1hJywgJzIwMCcsICctaW1hZScsICc8aW5maWxlLm1hZT4nLCAnLW9tYWUnLCAnPG91dGZpbGUubWFlPic=

>  <r_lp_tautomer_probability>  (194) 
0.97908

>  <r_epik_Ionization_Penalty>  (194) 
0.282937

>  <r_epik_Ionization_Penalty_Charging>  (194) 
0

>  <r_epik_Ionization_Penalty_Neutral>  (194) 
0.282937

>  <r_epik_State_Penalty>  (194) 
0.285296

>  <r_epik_Charging_Adjusted_Penalty>  (194) 
0.285296

>  <i_epik_Tot_Q>  (194) 
1

>  <i_epik_Tot_abs_Q>  (194) 
1

>  <s_lp_Force_Field>  (194) 
OPLS3e

>  <r_lp_Energy>  (194) 
39.1547

>  <b_lp_Chiralities_Consistent>  (194) 
1

>  <s_lp_Variant>  (194) 
56:0-1

>  <s_i_glide_gridfile>  (194) 
pfpi4k_grid

>  <i_i_glide_lignum>  (194) 
5

>  <i_i_glide_rotatable_bonds>  (194) 
2

>  <r_i_docking_score>  (194) 
-4.58678

>  <r_i_glide_ligand_efficiency>  (194) 
-0.229339

>  <r_i_glide_ligand_efficiency_sa>  (194) 
-0.622521

>  <r_i_glide_ligand_efficiency_ln>  (194) 
-1.14792

>  <r_i_glide_gscore>  (194) 
-4.58678

>  <r_i_glide_lipo>  (194) 
-0.35747

>  <r_i_glide_hbond>  (194) 
-0.45513

>  <r_i_glide_metal>  (194) 
-0

>  <r_i_glide_rewards>  (194) 
-1.69199

>  <r_i_glide_evdw>  (194) 
-23.8544

>  <r_i_glide_ecoul>  (194) 
-8.29869

>  <r_i_glide_erotb>  (194) 
0.492755

>  <r_i_glide_esite>  (194) 
-0.137416

>  <r_i_glide_emodel>  (194) 
-42.772

>  <r_i_glide_energy>  (194) 
-32.1531

>  <r_i_glide_einternal>  (194) 
1.66809

>  <r_i_glide_intrahb_reward>  (194) 
-0

>  <i_i_glide_confnum>  (194) 
6

>  <i_i_glide_posenum>  (194) 
11

>  <r_i_glide_eff_state_penalty>  (194) 
0

>  <ligand_id>  (194) 
56

>  <original_smiles>  (194) 
O=C(c1cnc2c[nH]nc2c1)N1CCn2ccnc2C1

>  <smiles>  (194) 
[H]c1nc2c([H])nn([H])c2c([H])c1C(=O)N1C([H])([H])c2n(c([H])c([H])[n+]2[H])C([H])([H])C1([H])[H]

$$$$
56:0:2
     RDKit          3D

 33 36  0  0  1  0  0  0  0  0999 V2000
    5.1388   -6.7678    1.0088 O   0  0  0  0  0  0  0  0  0  0  0  0
    4.2395   -5.9254    0.9793 C   0  0  0  0  0  0  0  0  0  0  0  0
    2.8578   -6.3757    1.3460 C   0  0  0  0  0  0  0  0  0  0  0  0
    1.7322   -6.0783    0.5409 C   0  0  0  0  0  0  0  0  0  0  0  0
    0.4514   -6.3998    0.8434 N   0  0  0  0  0  0  0  0  0  0  0  0
    0.2664   -7.1278    1.9460 C   0  0  0  0  0  0  0  0  0  0  0  0
   -0.9276   -7.6514    2.5021 C   0  0  0  0  0  0  0  0  0  0  0  0
   -0.6863   -8.3294    3.6116 N   0  0  0  0  0  0  0  0  0  0  0  0
    0.6784   -8.2651    3.7692 N   0  0  0  0  0  0  0  0  0  0  0  0
    1.3209   -7.5246    2.7949 C   0  0  0  0  0  0  0  0  0  0  0  0
    2.6445   -7.1493    2.5017 C   0  0  0  0  0  0  0  0  0  0  0  0
    4.4667   -4.6038    0.7325 N   0  0  0  0  0  0  0  0  0  0  0  0
    5.8533   -4.1241    0.5017 C   0  0  0  0  0  0  0  0  0  0  0  0
    5.9782   -3.7790   -0.9815 C   0  0  0  0  0  0  0  0  0  0  0  0
    4.9374   -2.8030   -1.3415 N   0  0  0  0  0  0  0  0  0  0  0  0
    4.9172   -1.9650   -2.4123 C   0  0  0  0  0  0  0  0  0  0  0  0
    3.7144   -1.3097   -2.3706 C   0  0  0  0  0  0  0  0  0  0  0  0
    3.0231   -1.8272   -1.3019 N   0  0  0  0  0  0  0  0  0  0  0  0
    3.7846   -2.7242   -0.6603 C   0  0  0  0  0  0  0  0  0  0  0  0
    3.4420   -3.5331    0.5699 C   0  0  0  0  0  0  0  0  0  0  0  0
    1.1179   -8.7402    4.5460 H   0  0  0  0  0  0  0  0  0  0  0  0
    1.8548   -5.5615   -0.4055 H   0  0  0  0  0  0  0  0  0  0  0  0
   -1.9094   -7.5177    2.0835 H   0  0  0  0  0  0  0  0  0  0  0  0
    3.4636   -7.4483    3.1433 H   0  0  0  0  0  0  0  0  0  0  0  0
    6.0387   -3.2303    1.1035 H   0  0  0  0  0  0  0  0  0  0  0  0
    6.6347   -4.8348    0.7984 H   0  0  0  0  0  0  0  0  0  0  0  0
    6.9630   -3.3787   -1.2481 H   0  0  0  0  0  0  0  0  0  0  0  0
    5.7956   -4.6588   -1.6008 H   0  0  0  0  0  0  0  0  0  0  0  0
    5.7485   -1.8860   -3.1003 H   0  0  0  0  0  0  0  0  0  0  0  0
    3.2935   -0.5296   -2.9978 H   0  0  0  0  0  0  0  0  0  0  0  0
    2.4392   -3.8679    0.3670 H   0  0  0  0  0  0  0  0  0  0  0  0
    3.4472   -2.8595    1.4427 H   0  0  0  0  0  0  0  0  0  0  0  0
    2.0606   -1.5287   -1.0370 H   0  0  0  0  0  0  0  0  0  0  0  0
  1  2  2  0
  2 12  1  0
  2  3  1  0
  3 11  1  0
  3  4  2  0
  4 22  1  0
  4  5  1  0
  5  6  2  0
  6  7  1  0
  6 10  1  0
  7 23  1  0
  7  8  2  0
  8  9  1  0
  9 21  1  0
  9 10  1  0
 10 11  2  0
 11 24  1  0
 12 20  1  0
 12 13  1  0
 13 14  1  0
 13 25  1  0
 13 26  1  0
 14 15  1  0
 14 27  1  0
 14 28  1  0
 15 19  1  0
 15 16  1  0
 16 17  2  0
 16 29  1  0
 17 18  1  0
 17 30  1  0
 18 19  2  0
 18 33  1  0
 19 20  1  0
 20 31  1  0
 20 32  1  0
M  CHG  1  18   1
M  END
>  <i_m_ct_stereo_status>  (195) 
1

>  <s_m_source_file>  (195) 
/var/tmp/pbs.5083858.sched01/tmp24im8byh/75nnsl7p92.sdf

>  <i_m_source_file_index>  (195) 
5

>  <i_lp_mmshare_version>  (195) 
48012

>  <i_f3d_flags>  (195) 
0

>  <s_epik_input>  (195) 
W2NIXTFbY0hdbmMobjEyKVtDSDJdTihbQ0gyXVtDSDJdMilDKD1PKWMoW2NIXW4zKVtjSF1jKGMzNCluW25IXVtjSF00

>  <s_epik_cmdline>  (195) 
J2VwaWtfcHl0aG9uJywgJy1waHQnLCAnMi4wJywgJy1waCcsICc3LjAnLCAnLXRuJywgJzgnLCAnLW1hJywgJzIwMCcsICctaW1hZScsICc8aW5maWxlLm1hZT4nLCAnLW9tYWUnLCAnPG91dGZpbGUubWFlPic=

>  <r_lp_tautomer_probability>  (195) 
0.97908

>  <r_epik_Ionization_Penalty>  (195) 
0.282937

>  <r_epik_Ionization_Penalty_Charging>  (195) 
0

>  <r_epik_Ionization_Penalty_Neutral>  (195) 
0.282937

>  <r_epik_State_Penalty>  (195) 
0.285296

>  <r_epik_Charging_Adjusted_Penalty>  (195) 
0.285296

>  <i_epik_Tot_Q>  (195) 
1

>  <i_epik_Tot_abs_Q>  (195) 
1

>  <s_lp_Force_Field>  (195) 
OPLS3e

>  <r_lp_Energy>  (195) 
39.1547

>  <b_lp_Chiralities_Consistent>  (195) 
1

>  <s_lp_Variant>  (195) 
56:0-1

>  <s_i_glide_gridfile>  (195) 
pfpi4k_grid

>  <i_i_glide_lignum>  (195) 
5

>  <i_i_glide_rotatable_bonds>  (195) 
2

>  <r_i_docking_score>  (195) 
-4.53977

>  <r_i_glide_ligand_efficiency>  (195) 
-0.226989

>  <r_i_glide_ligand_efficiency_sa>  (195) 
-0.616142

>  <r_i_glide_ligand_efficiency_ln>  (195) 
-1.13616

>  <r_i_glide_gscore>  (195) 
-4.53977

>  <r_i_glide_lipo>  (195) 
-0.17947

>  <r_i_glide_hbond>  (195) 
-0.318908

>  <r_i_glide_metal>  (195) 
-0

>  <r_i_glide_rewards>  (195) 
-1.72448

>  <r_i_glide_evdw>  (195) 
-21.0541

>  <r_i_glide_ecoul>  (195) 
-10.7436

>  <r_i_glide_erotb>  (195) 
0.492755

>  <r_i_glide_esite>  (195) 
-0.145423

>  <r_i_glide_emodel>  (195) 
-42.9746

>  <r_i_glide_energy>  (195) 
-31.7978

>  <r_i_glide_einternal>  (195) 
1.36949

>  <r_i_glide_intrahb_reward>  (195) 
-0

>  <i_i_glide_confnum>  (195) 
4

>  <i_i_glide_posenum>  (195) 
33

>  <r_i_glide_eff_state_penalty>  (195) 
0

>  <ligand_id>  (195) 
56

>  <original_smiles>  (195) 
O=C(c1cnc2c[nH]nc2c1)N1CCn2ccnc2C1

>  <smiles>  (195) 
[H]c1nc2c([H])nn([H])c2c([H])c1C(=O)N1C([H])([H])c2n(c([H])c([H])[n+]2[H])C([H])([H])C1([H])[H]

$$$$
56:1:0
     RDKit          3D

 32 35  0  0  1  0  0  0  0  0999 V2000
    5.0086   -0.8687    3.6941 O   0  0  0  0  0  0  0  0  0  0  0  0
    4.2640   -0.6847    2.7320 C   0  0  0  0  0  0  0  0  0  0  0  0
    2.8383   -0.3041    2.9942 C   0  0  0  0  0  0  0  0  0  0  0  0
    2.0012   -1.1245    3.7918 C   0  0  0  0  0  0  0  0  0  0  0  0
    0.7002   -0.8571    4.0782 N   0  0  0  0  0  0  0  0  0  0  0  0
    0.2008    0.2806    3.5697 C   0  0  0  0  0  0  0  0  0  0  0  0
   -1.0936    0.8247    3.6810 C   0  0  0  0  0  0  0  0  0  0  0  0
   -1.2052    1.9649    3.0243 N   0  0  0  0  0  0  0  0  0  0  0  0
    0.0340    2.1630    2.4743 N   0  0  0  0  0  0  0  0  0  0  0  0
    0.9581    1.1662    2.7746 C   0  0  0  0  0  0  0  0  0  0  0  0
    2.3000    0.8973    2.4909 C   0  0  0  0  0  0  0  0  0  0  0  0
    4.6684   -0.8207    1.4411 N   0  0  0  0  0  0  0  0  0  0  0  0
    3.8133   -0.6738    0.2503 C   0  0  0  0  0  0  0  0  0  0  0  0
    3.8239   -1.9632   -0.5708 C   0  0  0  0  0  0  0  0  0  0  0  0
    5.1916   -2.2865   -0.8758 N   0  0  0  0  0  0  0  0  0  0  0  0
    5.6926   -3.0241   -1.9333 C   0  0  0  0  0  0  0  0  0  0  0  0
    7.0563   -3.0555   -1.7486 C   0  0  0  0  0  0  0  0  0  0  0  0
    7.4029   -2.3297   -0.6141 N   0  0  0  0  0  0  0  0  0  0  0  0
    6.2389   -1.9299   -0.1202 C   0  0  0  0  0  0  0  0  0  0  0  0
    6.0846   -1.1066    1.1244 C   0  0  0  0  0  0  0  0  0  0  0  0
    0.1985    2.9857    1.8770 H   0  0  0  0  0  0  0  0  0  0  0  0
    2.3895   -2.0440    4.2086 H   0  0  0  0  0  0  0  0  0  0  0  0
   -1.9059    0.3714    4.2262 H   0  0  0  0  0  0  0  0  0  0  0  0
    2.8862    1.5684    1.8833 H   0  0  0  0  0  0  0  0  0  0  0  0
    2.7643   -0.4402    0.4315 H   0  0  0  0  0  0  0  0  0  0  0  0
    4.2189    0.1445   -0.3474 H   0  0  0  0  0  0  0  0  0  0  0  0
    3.3799   -2.7869   -0.0072 H   0  0  0  0  0  0  0  0  0  0  0  0
    3.2558   -1.8362   -1.4952 H   0  0  0  0  0  0  0  0  0  0  0  0
    5.0609   -3.4577   -2.6962 H   0  0  0  0  0  0  0  0  0  0  0  0
    7.8188   -3.5503   -2.3233 H   0  0  0  0  0  0  0  0  0  0  0  0
    6.5955   -0.1682    0.9385 H   0  0  0  0  0  0  0  0  0  0  0  0
    6.5986   -1.6267    1.9344 H   0  0  0  0  0  0  0  0  0  0  0  0
  1  2  2  0
  2 12  1  0
  2  3  1  0
  3 11  1  0
  3  4  2  0
  4 22  1  0
  4  5  1  0
  5  6  2  0
  6  7  1  0
  6 10  1  0
  7 23  1  0
  7  8  2  0
  8  9  1  0
  9 21  1  0
  9 10  1  0
 10 11  2  0
 11 24  1  0
 12 20  1  0
 12 13  1  0
 13 14  1  0
 13 25  1  0
 13 26  1  0
 14 15  1  0
 14 27  1  0
 14 28  1  0
 15 19  1  0
 15 16  1  0
 16 17  2  0
 16 29  1  0
 17 18  1  0
 17 30  1  0
 18 19  2  0
 19 20  1  0
 20 31  1  0
 20 32  1  0
M  END
>  <i_m_ct_stereo_status>  (196) 
1

>  <s_m_source_file>  (196) 
/var/tmp/pbs.5083858.sched01/tmps_tfv_6k/80a84567nl.sdf

>  <i_m_source_file_index>  (196) 
1

>  <i_lp_mmshare_version>  (196) 
48012

>  <i_f3d_flags>  (196) 
0

>  <s_epik_input>  (196) 
W2NIXTFbY0hdbmMobjEyKVtDSDJdTihbQ0gyXVtDSDJdMilDKD1PKWMoW2NIXW4zKVtjSF1jKGMzNCluW25IXVtjSF00

>  <s_epik_cmdline>  (196) 
J2VwaWtfcHl0aG9uJywgJy1waHQnLCAnMi4wJywgJy1waCcsICc3LjAnLCAnLXRuJywgJzgnLCAnLW1hJywgJzIwMCcsICctaW1hZScsICc8aW5maWxlLm1hZT4nLCAnLW9tYWUnLCAnPG91dGZpbGUubWFlPic=

>  <r_lp_tautomer_probability>  (196) 
0.97908

>  <r_epik_Ionization_Penalty>  (196) 
0.573782

>  <r_epik_Ionization_Penalty_Charging>  (196) 
0.573773

>  <r_epik_Ionization_Penalty_Neutral>  (196) 
8.58977e-06

>  <r_epik_State_Penalty>  (196) 
0.595652

>  <r_epik_Charging_Adjusted_Penalty>  (196) 
1.16943

>  <i_epik_Tot_Q>  (196) 
0

>  <i_epik_Tot_abs_Q>  (196) 
0

>  <s_lp_Force_Field>  (196) 
OPLS3e

>  <r_lp_Energy>  (196) 
34.2388

>  <b_lp_Chiralities_Consistent>  (196) 
1

>  <s_lp_Variant>  (196) 
56:0-2

>  <s_i_glide_gridfile>  (196) 
pfpi4k_grid

>  <i_i_glide_lignum>  (196) 
1

>  <i_i_glide_rotatable_bonds>  (196) 
2

>  <r_i_docking_score>  (196) 
-4.30931

>  <r_i_glide_ligand_efficiency>  (196) 
-0.215465

>  <r_i_glide_ligand_efficiency_sa>  (196) 
-0.584863

>  <r_i_glide_ligand_efficiency_ln>  (196) 
-1.07848

>  <r_i_glide_gscore>  (196) 
-4.30931

>  <r_i_glide_lipo>  (196) 
-0.247291

>  <r_i_glide_hbond>  (196) 
-0.312535

>  <r_i_glide_metal>  (196) 
-0

>  <r_i_glide_rewards>  (196) 
-1.7798

>  <r_i_glide_evdw>  (196) 
-24.9774

>  <r_i_glide_ecoul>  (196) 
-7.23189

>  <r_i_glide_erotb>  (196) 
0.49596

>  <r_i_glide_esite>  (196) 
-0.131989

>  <r_i_glide_emodel>  (196) 
-41.0747

>  <r_i_glide_energy>  (196) 
-32.2093

>  <r_i_glide_einternal>  (196) 
1.93234

>  <r_i_glide_intrahb_reward>  (196) 
-0

>  <i_i_glide_confnum>  (196) 
4

>  <i_i_glide_posenum>  (196) 
3

>  <r_i_glide_eff_state_penalty>  (196) 
0

>  <ligand_id>  (196) 
56

>  <original_smiles>  (196) 
O=C(c1cnc2c[nH]nc2c1)N1CCn2ccnc2C1

>  <smiles>  (196) 
[H]c1nc2c([H])nn([H])c2c([H])c1C(=O)N1C([H])([H])c2nc([H])c([H])n2C([H])([H])C1([H])[H]

$$$$
56:1:1
     RDKit          3D

 32 35  0  0  1  0  0  0  0  0999 V2000
    8.3228   -4.3675    0.5232 O   0  0  0  0  0  0  0  0  0  0  0  0
    7.1066   -4.5533    0.4780 C   0  0  0  0  0  0  0  0  0  0  0  0
    6.2822   -3.6473   -0.3981 C   0  0  0  0  0  0  0  0  0  0  0  0
    6.4837   -2.2467   -0.3751 C   0  0  0  0  0  0  0  0  0  0  0  0
    5.7932   -1.3470   -1.1253 N   0  0  0  0  0  0  0  0  0  0  0  0
    4.8378   -1.8484   -1.9350 C   0  0  0  0  0  0  0  0  0  0  0  0
    3.9354   -1.2000   -2.8127 C   0  0  0  0  0  0  0  0  0  0  0  0
    3.1513   -2.0737   -3.4362 N   0  0  0  0  0  0  0  0  0  0  0  0
    3.5476   -3.2956   -2.9461 N   0  0  0  0  0  0  0  0  0  0  0  0
    4.5892   -3.2255   -2.0411 C   0  0  0  0  0  0  0  0  0  0  0  0
    5.3396   -4.1455   -1.3140 C   0  0  0  0  0  0  0  0  0  0  0  0
    6.4764   -5.5032    1.2216 N   0  0  0  0  0  0  0  0  0  0  0  0
    5.0433   -5.8914    1.1324 C   0  0  0  0  0  0  0  0  0  0  0  0
    4.3749   -5.6914    2.4903 C   0  0  0  0  0  0  0  0  0  0  0  0
    5.1127   -6.4308    3.4759 N   0  0  0  0  0  0  0  0  0  0  0  0
    4.6505   -6.9469    4.6737 C   0  0  0  0  0  0  0  0  0  0  0  0
    5.7399   -7.5393    5.2679 C   0  0  0  0  0  0  0  0  0  0  0  0
    6.8697   -7.3987    4.4508 N   0  0  0  0  0  0  0  0  0  0  0  0
    6.4176   -6.7187    3.3948 C   0  0  0  0  0  0  0  0  0  0  0  0
    7.2531   -6.3202    2.1957 C   0  0  0  0  0  0  0  0  0  0  0  0
    3.0486   -4.1469   -3.1863 H   0  0  0  0  0  0  0  0  0  0  0  0
    7.2439   -1.8161    0.2643 H   0  0  0  0  0  0  0  0  0  0  0  0
    3.8932   -0.1331   -2.9817 H   0  0  0  0  0  0  0  0  0  0  0  0
    5.1561   -5.2083   -1.4279 H   0  0  0  0  0  0  0  0  0  0  0  0
    4.4055   -5.3406    0.4497 H   0  0  0  0  0  0  0  0  0  0  0  0
    5.0095   -6.9500    0.8414 H   0  0  0  0  0  0  0  0  0  0  0  0
    4.3761   -4.6339    2.7683 H   0  0  0  0  0  0  0  0  0  0  0  0
    3.3426   -6.0389    2.4611 H   0  0  0  0  0  0  0  0  0  0  0  0
    3.6184   -6.8609    4.9859 H   0  0  0  0  0  0  0  0  0  0  0  0
    5.8044   -8.0515    6.2117 H   0  0  0  0  0  0  0  0  0  0  0  0
    7.6186   -7.2146    1.6870 H   0  0  0  0  0  0  0  0  0  0  0  0
    8.1221   -5.7801    2.5761 H   0  0  0  0  0  0  0  0  0  0  0  0
  1  2  2  0
  2 12  1  0
  2  3  1  0
  3 11  1  0
  3  4  2  0
  4 22  1  0
  4  5  1  0
  5  6  2  0
  6  7  1  0
  6 10  1  0
  7 23  1  0
  7  8  2  0
  8  9  1  0
  9 21  1  0
  9 10  1  0
 10 11  2  0
 11 24  1  0
 12 20  1  0
 12 13  1  0
 13 14  1  0
 13 25  1  0
 13 26  1  0
 14 15  1  0
 14 27  1  0
 14 28  1  0
 15 19  1  0
 15 16  1  0
 16 17  2  0
 16 29  1  0
 17 18  1  0
 17 30  1  0
 18 19  2  0
 19 20  1  0
 20 31  1  0
 20 32  1  0
M  END
>  <i_m_ct_stereo_status>  (197) 
1

>  <s_m_source_file>  (197) 
/var/tmp/pbs.5083858.sched01/tmps_tfv_6k/80a84567nl.sdf

>  <i_m_source_file_index>  (197) 
1

>  <i_lp_mmshare_version>  (197) 
48012

>  <i_f3d_flags>  (197) 
0

>  <s_epik_input>  (197) 
W2NIXTFbY0hdbmMobjEyKVtDSDJdTihbQ0gyXVtDSDJdMilDKD1PKWMoW2NIXW4zKVtjSF1jKGMzNCluW25IXVtjSF00

>  <s_epik_cmdline>  (197) 
J2VwaWtfcHl0aG9uJywgJy1waHQnLCAnMi4wJywgJy1waCcsICc3LjAnLCAnLXRuJywgJzgnLCAnLW1hJywgJzIwMCcsICctaW1hZScsICc8aW5maWxlLm1hZT4nLCAnLW9tYWUnLCAnPG91dGZpbGUubWFlPic=

>  <r_lp_tautomer_probability>  (197) 
0.97908

>  <r_epik_Ionization_Penalty>  (197) 
0.573782

>  <r_epik_Ionization_Penalty_Charging>  (197) 
0.573773

>  <r_epik_Ionization_Penalty_Neutral>  (197) 
8.58977e-06

>  <r_epik_State_Penalty>  (197) 
0.595652

>  <r_epik_Charging_Adjusted_Penalty>  (197) 
1.16943

>  <i_epik_Tot_Q>  (197) 
0

>  <i_epik_Tot_abs_Q>  (197) 
0

>  <s_lp_Force_Field>  (197) 
OPLS3e

>  <r_lp_Energy>  (197) 
34.2388

>  <b_lp_Chiralities_Consistent>  (197) 
1

>  <s_lp_Variant>  (197) 
56:0-2

>  <s_i_glide_gridfile>  (197) 
pfpi4k_grid

>  <i_i_glide_lignum>  (197) 
1

>  <i_i_glide_rotatable_bonds>  (197) 
2

>  <r_i_docking_score>  (197) 
-3.85009

>  <r_i_glide_ligand_efficiency>  (197) 
-0.192505

>  <r_i_glide_ligand_efficiency_sa>  (197) 
-0.522538

>  <r_i_glide_ligand_efficiency_ln>  (197) 
-0.963551

>  <r_i_glide_gscore>  (197) 
-3.85009

>  <r_i_glide_lipo>  (197) 
-0.195083

>  <r_i_glide_hbond>  (197) 
-0.321607

>  <r_i_glide_metal>  (197) 
-0

>  <r_i_glide_rewards>  (197) 
-1.88712

>  <r_i_glide_evdw>  (197) 
-22.9804

>  <r_i_glide_ecoul>  (197) 
-5.25745

>  <r_i_glide_erotb>  (197) 
0.49596

>  <r_i_glide_esite>  (197) 
-0.00461057

>  <r_i_glide_emodel>  (197) 
-35.9365

>  <r_i_glide_energy>  (197) 
-28.2378

>  <r_i_glide_einternal>  (197) 
1.203

>  <r_i_glide_intrahb_reward>  (197) 
-0

>  <i_i_glide_confnum>  (197) 
5

>  <i_i_glide_posenum>  (197) 
4

>  <r_i_glide_eff_state_penalty>  (197) 
0

>  <ligand_id>  (197) 
56

>  <original_smiles>  (197) 
O=C(c1cnc2c[nH]nc2c1)N1CCn2ccnc2C1

>  <smiles>  (197) 
[H]c1nc2c([H])nn([H])c2c([H])c1C(=O)N1C([H])([H])c2nc([H])c([H])n2C([H])([H])C1([H])[H]

$$$$
56:1:2
     RDKit          3D

 32 35  0  0  1  0  0  0  0  0999 V2000
    6.8294   -2.5651    0.6679 O   0  0  0  0  0  0  0  0  0  0  0  0
    5.7625   -3.1498    0.4639 C   0  0  0  0  0  0  0  0  0  0  0  0
    5.5607   -4.5124    1.0685 C   0  0  0  0  0  0  0  0  0  0  0  0
    5.8202   -4.7443    2.4409 C   0  0  0  0  0  0  0  0  0  0  0  0
    5.6806   -5.9379    3.0726 N   0  0  0  0  0  0  0  0  0  0  0  0
    5.2752   -6.9678    2.3170 C   0  0  0  0  0  0  0  0  0  0  0  0
    5.0393   -8.3134    2.6709 C   0  0  0  0  0  0  0  0  0  0  0  0
    4.6381   -9.0245    1.6293 N   0  0  0  0  0  0  0  0  0  0  0  0
    4.6127   -8.1312    0.5896 N   0  0  0  0  0  0  0  0  0  0  0  0
    5.0016   -6.8416    0.9395 C   0  0  0  0  0  0  0  0  0  0  0  0
    5.1565   -5.6132    0.2876 C   0  0  0  0  0  0  0  0  0  0  0  0
    4.7576   -2.6067   -0.2713 N   0  0  0  0  0  0  0  0  0  0  0  0
    3.3837   -3.1368   -0.3870 C   0  0  0  0  0  0  0  0  0  0  0  0
    3.0945   -3.4183   -1.8704 C   0  0  0  0  0  0  0  0  0  0  0  0
    3.3266   -2.2187   -2.6226 N   0  0  0  0  0  0  0  0  0  0  0  0
    2.7800   -1.8408   -3.8348 C   0  0  0  0  0  0  0  0  0  0  0  0
    3.3340   -0.6224   -4.1388 C   0  0  0  0  0  0  0  0  0  0  0  0
    4.2153   -0.2509   -3.1280 N   0  0  0  0  0  0  0  0  0  0  0  0
    4.1734   -1.2486   -2.2564 C   0  0  0  0  0  0  0  0  0  0  0  0
    4.9529   -1.3193   -0.9688 C   0  0  0  0  0  0  0  0  0  0  0  0
    4.3314   -8.4267   -0.3341 H   0  0  0  0  0  0  0  0  0  0  0  0
    6.1495   -3.9295    3.0655 H   0  0  0  0  0  0  0  0  0  0  0  0
    5.1702   -8.7163    3.6646 H   0  0  0  0  0  0  0  0  0  0  0  0
    4.9541   -5.5226   -0.7670 H   0  0  0  0  0  0  0  0  0  0  0  0
    3.1709   -4.0275    0.2012 H   0  0  0  0  0  0  0  0  0  0  0  0
    2.6897   -2.3833   -0.0120 H   0  0  0  0  0  0  0  0  0  0  0  0
    3.7746   -4.1820   -2.2537 H   0  0  0  0  0  0  0  0  0  0  0  0
    2.0655   -3.7537   -2.0205 H   0  0  0  0  0  0  0  0  0  0  0  0
    2.0347   -2.4394   -4.3306 H   0  0  0  0  0  0  0  0  0  0  0  0
    3.1548    0.0281   -4.9819 H   0  0  0  0  0  0  0  0  0  0  0  0
    4.6438   -0.5089   -0.3103 H   0  0  0  0  0  0  0  0  0  0  0  0
    5.9941   -1.1740   -1.2411 H   0  0  0  0  0  0  0  0  0  0  0  0
  1  2  2  0
  2 12  1  0
  2  3  1  0
  3 11  1  0
  3  4  2  0
  4 22  1  0
  4  5  1  0
  5  6  2  0
  6  7  1  0
  6 10  1  0
  7 23  1  0
  7  8  2  0
  8  9  1  0
  9 21  1  0
  9 10  1  0
 10 11  2  0
 11 24  1  0
 12 20  1  0
 12 13  1  0
 13 14  1  0
 13 25  1  0
 13 26  1  0
 14 15  1  0
 14 27  1  0
 14 28  1  0
 15 19  1  0
 15 16  1  0
 16 17  2  0
 16 29  1  0
 17 18  1  0
 17 30  1  0
 18 19  2  0
 19 20  1  0
 20 31  1  0
 20 32  1  0
M  END
>  <i_m_ct_stereo_status>  (198) 
1

>  <s_m_source_file>  (198) 
/var/tmp/pbs.5083858.sched01/tmps_tfv_6k/80a84567nl.sdf

>  <i_m_source_file_index>  (198) 
1

>  <i_lp_mmshare_version>  (198) 
48012

>  <i_f3d_flags>  (198) 
0

>  <s_epik_input>  (198) 
W2NIXTFbY0hdbmMobjEyKVtDSDJdTihbQ0gyXVtDSDJdMilDKD1PKWMoW2NIXW4zKVtjSF1jKGMzNCluW25IXVtjSF00

>  <s_epik_cmdline>  (198) 
J2VwaWtfcHl0aG9uJywgJy1waHQnLCAnMi4wJywgJy1waCcsICc3LjAnLCAnLXRuJywgJzgnLCAnLW1hJywgJzIwMCcsICctaW1hZScsICc8aW5maWxlLm1hZT4nLCAnLW9tYWUnLCAnPG91dGZpbGUubWFlPic=

>  <r_lp_tautomer_probability>  (198) 
0.97908

>  <r_epik_Ionization_Penalty>  (198) 
0.573782

>  <r_epik_Ionization_Penalty_Charging>  (198) 
0.573773

>  <r_epik_Ionization_Penalty_Neutral>  (198) 
8.58977e-06

>  <r_epik_State_Penalty>  (198) 
0.595652

>  <r_epik_Charging_Adjusted_Penalty>  (198) 
1.16943

>  <i_epik_Tot_Q>  (198) 
0

>  <i_epik_Tot_abs_Q>  (198) 
0

>  <s_lp_Force_Field>  (198) 
OPLS3e

>  <r_lp_Energy>  (198) 
34.2388

>  <b_lp_Chiralities_Consistent>  (198) 
1

>  <s_lp_Variant>  (198) 
56:0-2

>  <s_i_glide_gridfile>  (198) 
pfpi4k_grid

>  <i_i_glide_lignum>  (198) 
1

>  <i_i_glide_rotatable_bonds>  (198) 
2

>  <r_i_docking_score>  (198) 
-3.52526

>  <r_i_glide_ligand_efficiency>  (198) 
-0.176263

>  <r_i_glide_ligand_efficiency_sa>  (198) 
-0.478451

>  <r_i_glide_ligand_efficiency_ln>  (198) 
-0.882256

>  <r_i_glide_gscore>  (198) 
-3.52526

>  <r_i_glide_lipo>  (198) 
-0.712716

>  <r_i_glide_hbond>  (198) 
0

>  <r_i_glide_metal>  (198) 
-0

>  <r_i_glide_rewards>  (198) 
-1.65841

>  <r_i_glide_evdw>  (198) 
-26.4204

>  <r_i_glide_ecoul>  (198) 
-1.70907

>  <r_i_glide_erotb>  (198) 
0.49596

>  <r_i_glide_esite>  (198) 
-0.0727078

>  <r_i_glide_emodel>  (198) 
-36.1024

>  <r_i_glide_energy>  (198) 
-28.1295

>  <r_i_glide_einternal>  (198) 
0.105586

>  <r_i_glide_intrahb_reward>  (198) 
-0

>  <i_i_glide_confnum>  (198) 
1

>  <i_i_glide_posenum>  (198) 
27

>  <r_i_glide_eff_state_penalty>  (198) 
0

>  <ligand_id>  (198) 
56

>  <original_smiles>  (198) 
O=C(c1cnc2c[nH]nc2c1)N1CCn2ccnc2C1

>  <smiles>  (198) 
[H]c1nc2c([H])nn([H])c2c([H])c1C(=O)N1C([H])([H])c2nc([H])c([H])n2C([H])([H])C1([H])[H]

$$$$
56:2:0
     RDKit          3D

 33 36  0  0  1  0  0  0  0  0999 V2000
    4.7040   -7.3345    0.9999 O   0  0  0  0  0  0  0  0  0  0  0  0
    3.8438   -6.4530    1.1373 C   0  0  0  0  0  0  0  0  0  0  0  0
    2.4528   -6.8810    1.5384 C   0  0  0  0  0  0  0  0  0  0  0  0
    1.2702   -6.4253    0.8875 C   0  0  0  0  0  0  0  0  0  0  0  0
    0.0100   -6.6960    1.2685 N   0  0  0  0  0  0  0  0  0  0  0  0
   -0.1135   -7.6211    2.2447 C   0  0  0  0  0  0  0  0  0  0  0  0
   -1.2643   -8.1710    2.7668 C   0  0  0  0  0  0  0  0  0  0  0  0
   -0.8175   -9.0781    3.7193 N   0  0  0  0  0  0  0  0  0  0  0  0
    0.5621   -9.1249    3.8038 N   0  0  0  0  0  0  0  0  0  0  0  0
    0.9520   -8.2246    2.8869 C   0  0  0  0  0  0  0  0  0  0  0  0
    2.2879   -7.8541    2.5639 C   0  0  0  0  0  0  0  0  0  0  0  0
    4.1419   -5.1222    1.0583 N   0  0  0  0  0  0  0  0  0  0  0  0
    5.5462   -4.6642    1.0692 C   0  0  0  0  0  0  0  0  0  0  0  0
    5.8883   -4.1810   -0.3455 C   0  0  0  0  0  0  0  0  0  0  0  0
    4.9367   -3.1440   -0.7542 N   0  0  0  0  0  0  0  0  0  0  0  0
    5.0828   -2.1771   -1.7166 C   0  0  0  0  0  0  0  0  0  0  0  0
    3.8821   -1.5097   -1.7691 C   0  0  0  0  0  0  0  0  0  0  0  0
    3.0514   -2.1129   -0.8634 N   0  0  0  0  0  0  0  0  0  0  0  0
    3.7161   -3.0764   -0.2087 C   0  0  0  0  0  0  0  0  0  0  0  0
    3.1927   -3.9936    0.8594 C   0  0  0  0  0  0  0  0  0  0  0  0
   -1.4055   -9.6879    4.2786 H   0  0  0  0  0  0  0  0  0  0  0  0
    1.2759   -5.8533   -0.0195 H   0  0  0  0  0  0  0  0  0  0  0  0
   -2.3173   -8.0246    2.5597 H   0  0  0  0  0  0  0  0  0  0  0  0
    3.1235   -8.3308    3.0665 H   0  0  0  0  0  0  0  0  0  0  0  0
    5.6487   -3.8328    1.7752 H   0  0  0  0  0  0  0  0  0  0  0  0
    6.2624   -5.4199    1.4197 H   0  0  0  0  0  0  0  0  0  0  0  0
    6.8985   -3.7886   -0.4123 H   0  0  0  0  0  0  0  0  0  0  0  0
    5.7978   -5.0078   -1.0479 H   0  0  0  0  0  0  0  0  0  0  0  0
    6.0003   -2.0301   -2.2585 H   0  0  0  0  0  0  0  0  0  0  0  0
    3.5585   -0.6682   -2.3630 H   0  0  0  0  0  0  0  0  0  0  0  0
    2.2732   -4.2344    0.3769 H   0  0  0  0  0  0  0  0  0  0  0  0
    2.9700   -3.4475    1.7769 H   0  0  0  0  0  0  0  0  0  0  0  0
    2.0769   -1.8080   -0.7089 H   0  0  0  0  0  0  0  0  0  0  0  0
  1  2  2  0
  2  3  1  0
  2 12  1  0
  3 11  2  0
  3  4  1  0
  4  5  2  0
  4 22  1  0
  5  6  1  0
  6 10  1  0
  6  7  2  0
  7  8  1  0
  7 23  1  0
  8 21  1  0
  8  9  1  0
  9 10  2  0
 10 11  1  0
 11 24  1  0
 12 20  1  0
 12 13  1  0
 13 14  1  0
 13 25  1  0
 13 26  1  0
 14 15  1  0
 14 27  1  0
 14 28  1  0
 15 19  1  0
 15 16  1  0
 16 17  2  0
 16 29  1  0
 17 18  1  0
 17 30  1  0
 18 19  2  0
 18 33  1  0
 19 20  1  0
 20 31  1  0
 20 32  1  0
M  CHG  1  18   1
M  END
>  <i_m_ct_stereo_status>  (199) 
1

>  <s_m_source_file>  (199) 
/var/tmp/pbs.5083858.sched01/tmps_tfv_6k/80a84567nl.sdf

>  <i_m_source_file_index>  (199) 
2

>  <i_lp_mmshare_version>  (199) 
48012

>  <i_f3d_flags>  (199) 
0

>  <s_epik_input>  (199) 
W2NIXTFbY0hdbmMobjEyKVtDSDJdTihbQ0gyXVtDSDJdMilDKD1PKWMoW2NIXW4zKVtjSF1jKGMzNCluW25IXVtjSF00

>  <s_epik_cmdline>  (199) 
J2VwaWtfcHl0aG9uJywgJy1waHQnLCAnMi4wJywgJy1waCcsICc3LjAnLCAnLXRuJywgJzgnLCAnLW1hJywgJzIwMCcsICctaW1hZScsICc8aW5maWxlLm1hZT4nLCAnLW9tYWUnLCAnPG91dGZpbGUubWFlPic=

>  <r_lp_tautomer_probability>  (199) 
0.0209196

>  <r_epik_Ionization_Penalty>  (199) 
0.282932

>  <r_epik_Ionization_Penalty_Charging>  (199) 
0

>  <r_epik_Ionization_Penalty_Neutral>  (199) 
0.282932

>  <r_epik_State_Penalty>  (199) 
2.71681

>  <r_epik_Charging_Adjusted_Penalty>  (199) 
2.71681

>  <i_epik_Tot_Q>  (199) 
1

>  <i_epik_Tot_abs_Q>  (199) 
1

>  <s_lp_Force_Field>  (199) 
OPLS3e

>  <r_lp_Energy>  (199) 
38.3835

>  <b_lp_Chiralities_Consistent>  (199) 
1

>  <s_lp_Variant>  (199) 
56:0-3

>  <s_i_glide_gridfile>  (199) 
pfpi4k_grid

>  <i_i_glide_lignum>  (199) 
2

>  <i_i_glide_rotatable_bonds>  (199) 
2

>  <r_i_docking_score>  (199) 
-4.82515

>  <r_i_glide_ligand_efficiency>  (199) 
-0.241257

>  <r_i_glide_ligand_efficiency_sa>  (199) 
-0.654874

>  <r_i_glide_ligand_efficiency_ln>  (199) 
-1.20758

>  <r_i_glide_gscore>  (199) 
-4.82515

>  <r_i_glide_lipo>  (199) 
-0.109379

>  <r_i_glide_hbond>  (199) 
-0.507507

>  <r_i_glide_metal>  (199) 
-0

>  <r_i_glide_rewards>  (199) 
-1.75579

>  <r_i_glide_evdw>  (199) 
-24.6926

>  <r_i_glide_ecoul>  (199) 
-10.1503

>  <r_i_glide_erotb>  (199) 
0.492755

>  <r_i_glide_esite>  (199) 
-0.188047

>  <r_i_glide_emodel>  (199) 
-45.3603

>  <r_i_glide_energy>  (199) 
-34.843

>  <r_i_glide_einternal>  (199) 
2.4761

>  <r_i_glide_intrahb_reward>  (199) 
-0

>  <i_i_glide_confnum>  (199) 
4

>  <i_i_glide_posenum>  (199) 
2

>  <r_i_glide_eff_state_penalty>  (199) 
0

>  <ligand_id>  (199) 
56

>  <original_smiles>  (199) 
O=C(c1cnc2c[nH]nc2c1)N1CCn2ccnc2C1

>  <smiles>  (199) 
[H]c1nc2c([H])n([H])nc2c([H])c1C(=O)N1C([H])([H])c2n(c([H])c([H])[n+]2[H])C([H])([H])C1([H])[H]

$$$$
56:2:1
     RDKit          3D

 33 36  0  0  1  0  0  0  0  0999 V2000
    5.2853   -6.3698    0.5762 O   0  0  0  0  0  0  0  0  0  0  0  0
    4.3134   -5.6042    0.5135 C   0  0  0  0  0  0  0  0  0  0  0  0
    2.9948   -6.1333    1.0038 C   0  0  0  0  0  0  0  0  0  0  0  0
    1.7707   -5.9530    0.2932 C   0  0  0  0  0  0  0  0  0  0  0  0
    0.5648   -6.3429    0.7201 N   0  0  0  0  0  0  0  0  0  0  0  0
    0.5479   -7.0556    1.8863 C   0  0  0  0  0  0  0  0  0  0  0  0
   -0.5292   -7.6332    2.5296 C   0  0  0  0  0  0  0  0  0  0  0  0
    0.0185   -8.2663    3.6382 N   0  0  0  0  0  0  0  0  0  0  0  0
    1.3890   -8.1042    3.7233 N   0  0  0  0  0  0  0  0  0  0  0  0
    1.6665   -7.3620    2.6340 C   0  0  0  0  0  0  0  0  0  0  0  0
    2.9468   -6.8794    2.2137 C   0  0  0  0  0  0  0  0  0  0  0  0
    4.4005   -4.2967    0.1124 N   0  0  0  0  0  0  0  0  0  0  0  0
    5.7365   -3.7163   -0.2207 C   0  0  0  0  0  0  0  0  0  0  0  0
    5.7897   -3.5135   -1.7352 C   0  0  0  0  0  0  0  0  0  0  0  0
    4.6521   -2.6928   -2.1443 N   0  0  0  0  0  0  0  0  0  0  0  0
    4.5007   -1.9545   -3.2896 C   0  0  0  0  0  0  0  0  0  0  0  0
    3.2312   -1.4316   -3.2546 C   0  0  0  0  0  0  0  0  0  0  0  0
    2.6631   -1.9222   -2.1150 N   0  0  0  0  0  0  0  0  0  0  0  0
    3.5349   -2.6447   -1.4134 C   0  0  0  0  0  0  0  0  0  0  0  0
    3.2906   -3.3195   -0.0808 C   0  0  0  0  0  0  0  0  0  0  0  0
   -0.4933   -8.8063    4.3029 H   0  0  0  0  0  0  0  0  0  0  0  0
    1.7702   -5.5769   -0.7185 H   0  0  0  0  0  0  0  0  0  0  0  0
   -1.5913   -7.6692    2.2992 H   0  0  0  0  0  0  0  0  0  0  0  0
    3.8259   -7.1325    2.7957 H   0  0  0  0  0  0  0  0  0  0  0  0
    5.8510   -2.7557    0.2951 H   0  0  0  0  0  0  0  0  0  0  0  0
    6.5977   -4.3160    0.1214 H   0  0  0  0  0  0  0  0  0  0  0  0
    6.7006   -3.0480   -2.0689 H   0  0  0  0  0  0  0  0  0  0  0  0
    5.6701   -4.4647   -2.2386 H   0  0  0  0  0  0  0  0  0  0  0  0
    5.3113   -1.8337   -3.9749 H   0  0  0  0  0  0  0  0  0  0  0  0
    2.7256   -0.7385   -3.9204 H   0  0  0  0  0  0  0  0  0  0  0  0
    2.3085   -3.6935   -0.2513 H   0  0  0  0  0  0  0  0  0  0  0  0
    3.2663   -2.5572    0.7241 H   0  0  0  0  0  0  0  0  0  0  0  0
    1.7505   -1.6268   -1.7146 H   0  0  0  0  0  0  0  0  0  0  0  0
  1  2  2  0
  2  3  1  0
  2 12  1  0
  3 11  2  0
  3  4  1  0
  4  5  2  0
  4 22  1  0
  5  6  1  0
  6 10  1  0
  6  7  2  0
  7  8  1  0
  7 23  1  0
  8 21  1  0
  8  9  1  0
  9 10  2  0
 10 11  1  0
 11 24  1  0
 12 20  1  0
 12 13  1  0
 13 14  1  0
 13 25  1  0
 13 26  1  0
 14 15  1  0
 14 27  1  0
 14 28  1  0
 15 19  1  0
 15 16  1  0
 16 17  2  0
 16 29  1  0
 17 18  1  0
 17 30  1  0
 18 19  2  0
 18 33  1  0
 19 20  1  0
 20 31  1  0
 20 32  1  0
M  CHG  1  18   1
M  END
>  <i_m_ct_stereo_status>  (200) 
1

>  <s_m_source_file>  (200) 
/var/tmp/pbs.5083858.sched01/tmps_tfv_6k/80a84567nl.sdf

>  <i_m_source_file_index>  (200) 
2

>  <i_lp_mmshare_version>  (200) 
48012

>  <i_f3d_flags>  (200) 
0

>  <s_epik_input>  (200) 
W2NIXTFbY0hdbmMobjEyKVtDSDJdTihbQ0gyXVtDSDJdMilDKD1PKWMoW2NIXW4zKVtjSF1jKGMzNCluW25IXVtjSF00

>  <s_epik_cmdline>  (200) 
J2VwaWtfcHl0aG9uJywgJy1waHQnLCAnMi4wJywgJy1waCcsICc3LjAnLCAnLXRuJywgJzgnLCAnLW1hJywgJzIwMCcsICctaW1hZScsICc8aW5maWxlLm1hZT4nLCAnLW9tYWUnLCAnPG91dGZpbGUubWFlPic=

>  <r_lp_tautomer_probability>  (200) 
0.0209196

>  <r_epik_Ionization_Penalty>  (200) 
0.282932

>  <r_epik_Ionization_Penalty_Charging>  (200) 
0

>  <r_epik_Ionization_Penalty_Neutral>  (200) 
0.282932

>  <r_epik_State_Penalty>  (200) 
2.71681

>  <r_epik_Charging_Adjusted_Penalty>  (200) 
2.71681

>  <i_epik_Tot_Q>  (200) 
1

>  <i_epik_Tot_abs_Q>  (200) 
1

>  <s_lp_Force_Field>  (200) 
OPLS3e

>  <r_lp_Energy>  (200) 
38.3835

>  <b_lp_Chiralities_Consistent>  (200) 
1

>  <s_lp_Variant>  (200) 
56:0-3

>  <s_i_glide_gridfile>  (200) 
pfpi4k_grid

>  <i_i_glide_lignum>  (200) 
2

>  <i_i_glide_rotatable_bonds>  (200) 
2

>  <r_i_docking_score>  (200) 
-4.68446

>  <r_i_glide_ligand_efficiency>  (200) 
-0.234223

>  <r_i_glide_ligand_efficiency_sa>  (200) 
-0.635779

>  <r_i_glide_ligand_efficiency_ln>  (200) 
-1.17237

>  <r_i_glide_gscore>  (200) 
-4.68446

>  <r_i_glide_lipo>  (200) 
-0.369034

>  <r_i_glide_hbond>  (200) 
-0.334134

>  <r_i_glide_metal>  (200) 
-0

>  <r_i_glide_rewards>  (200) 
-1.74711

>  <r_i_glide_evdw>  (200) 
-21.4205

>  <r_i_glide_ecoul>  (200) 
-10.1004

>  <r_i_glide_erotb>  (200) 
0.492755

>  <r_i_glide_esite>  (200) 
-0.140853

>  <r_i_glide_emodel>  (200) 
-41.6622

>  <r_i_glide_energy>  (200) 
-31.5209

>  <r_i_glide_einternal>  (200) 
1.78904

>  <r_i_glide_intrahb_reward>  (200) 
-0

>  <i_i_glide_confnum>  (200) 
4

>  <i_i_glide_posenum>  (200) 
34

>  <r_i_glide_eff_state_penalty>  (200) 
0

>  <ligand_id>  (200) 
56

>  <original_smiles>  (200) 
O=C(c1cnc2c[nH]nc2c1)N1CCn2ccnc2C1

>  <smiles>  (200) 
[H]c1nc2c([H])n([H])nc2c([H])c1C(=O)N1C([H])([H])c2n(c([H])c([H])[n+]2[H])C([H])([H])C1([H])[H]

$$$$
56:2:2
     RDKit          3D

 33 36  0  0  1  0  0  0  0  0999 V2000
    4.9929   -2.9918    2.4387 O   0  0  0  0  0  0  0  0  0  0  0  0
    4.7038   -2.0370    1.7199 C   0  0  0  0  0  0  0  0  0  0  0  0
    4.0663   -0.8434    2.3709 C   0  0  0  0  0  0  0  0  0  0  0  0
    4.6048   -0.3068    3.5749 C   0  0  0  0  0  0  0  0  0  0  0  0
    4.0885    0.7717    4.2243 N   0  0  0  0  0  0  0  0  0  0  0  0
    2.9959    1.3422    3.6502 C   0  0  0  0  0  0  0  0  0  0  0  0
    2.2485    2.4492    4.0398 C   0  0  0  0  0  0  0  0  0  0  0  0
    1.2560    2.5739    3.0708 N   0  0  0  0  0  0  0  0  0  0  0  0
    1.3331    1.5851    2.1093 N   0  0  0  0  0  0  0  0  0  0  0  0
    2.3891    0.8740    2.5105 C   0  0  0  0  0  0  0  0  0  0  0  0
    2.8745   -0.2711    1.8696 C   0  0  0  0  0  0  0  0  0  0  0  0
    4.9827   -2.0063    0.3861 N   0  0  0  0  0  0  0  0  0  0  0  0
    5.6104   -3.1731   -0.2749 C   0  0  0  0  0  0  0  0  0  0  0  0
    4.5490   -3.8388   -1.1607 C   0  0  0  0  0  0  0  0  0  0  0  0
    4.0274   -2.8472   -2.1156 N   0  0  0  0  0  0  0  0  0  0  0  0
    3.4126   -3.0617   -3.3203 C   0  0  0  0  0  0  0  0  0  0  0  0
    3.0522   -1.8177   -3.7895 C   0  0  0  0  0  0  0  0  0  0  0  0
    3.4599   -0.9153   -2.8455 N   0  0  0  0  0  0  0  0  0  0  0  0
    4.0673   -1.5433   -1.8353 C   0  0  0  0  0  0  0  0  0  0  0  0
    4.6556   -0.9256   -0.5875 C   0  0  0  0  0  0  0  0  0  0  0  0
    0.5444    3.2888    3.0130 H   0  0  0  0  0  0  0  0  0  0  0  0
    5.4775   -0.7493    4.0365 H   0  0  0  0  0  0  0  0  0  0  0  0
    2.3002    3.1338    4.8734 H   0  0  0  0  0  0  0  0  0  0  0  0
    2.3502   -0.6690    1.0100 H   0  0  0  0  0  0  0  0  0  0  0  0
    6.4486   -2.8408   -0.8891 H   0  0  0  0  0  0  0  0  0  0  0  0
    6.0332   -3.9017    0.4163 H   0  0  0  0  0  0  0  0  0  0  0  0
    4.9485   -4.6843   -1.7248 H   0  0  0  0  0  0  0  0  0  0  0  0
    3.7066   -4.1973   -0.5568 H   0  0  0  0  0  0  0  0  0  0  0  0
    3.2732   -4.0495   -3.7422 H   0  0  0  0  0  0  0  0  0  0  0  0
    2.5448   -1.5198   -4.6945 H   0  0  0  0  0  0  0  0  0  0  0  0
    3.9050   -0.2174   -0.2801 H   0  0  0  0  0  0  0  0  0  0  0  0
    5.5554   -0.3581   -0.8660 H   0  0  0  0  0  0  0  0  0  0  0  0
    3.2715    0.0848   -2.8783 H   0  0  0  0  0  0  0  0  0  0  0  0
  1  2  2  0
  2  3  1  0
  2 12  1  0
  3 11  2  0
  3  4  1  0
  4  5  2  0
  4 22  1  0
  5  6  1  0
  6 10  1  0
  6  7  2  0
  7  8  1  0
  7 23  1  0
  8 21  1  0
  8  9  1  0
  9 10  2  0
 10 11  1  0
 11 24  1  0
 12 20  1  0
 12 13  1  0
 13 14  1  0
 13 25  1  0
 13 26  1  0
 14 15  1  0
 14 27  1  0
 14 28  1  0
 15 19  1  0
 15 16  1  0
 16 17  2  0
 16 29  1  0
 17 18  1  0
 17 30  1  0
 18 19  2  0
 18 33  1  0
 19 20  1  0
 20 31  1  0
 20 32  1  0
M  CHG  1  18   1
M  END
>  <i_m_ct_stereo_status>  (201) 
1

>  <s_m_source_file>  (201) 
/var/tmp/pbs.5083858.sched01/tmps_tfv_6k/80a84567nl.sdf

>  <i_m_source_file_index>  (201) 
2

>  <i_lp_mmshare_version>  (201) 
48012

>  <i_f3d_flags>  (201) 
0

>  <s_epik_input>  (201) 
W2NIXTFbY0hdbmMobjEyKVtDSDJdTihbQ0gyXVtDSDJdMilDKD1PKWMoW2NIXW4zKVtjSF1jKGMzNCluW25IXVtjSF00

>  <s_epik_cmdline>  (201) 
J2VwaWtfcHl0aG9uJywgJy1waHQnLCAnMi4wJywgJy1waCcsICc3LjAnLCAnLXRuJywgJzgnLCAnLW1hJywgJzIwMCcsICctaW1hZScsICc8aW5maWxlLm1hZT4nLCAnLW9tYWUnLCAnPG91dGZpbGUubWFlPic=

>  <r_lp_tautomer_probability>  (201) 
0.0209196

>  <r_epik_Ionization_Penalty>  (201) 
0.282932

>  <r_epik_Ionization_Penalty_Charging>  (201) 
0

>  <r_epik_Ionization_Penalty_Neutral>  (201) 
0.282932

>  <r_epik_State_Penalty>  (201) 
2.71681

>  <r_epik_Charging_Adjusted_Penalty>  (201) 
2.71681

>  <i_epik_Tot_Q>  (201) 
1

>  <i_epik_Tot_abs_Q>  (201) 
1

>  <s_lp_Force_Field>  (201) 
OPLS3e

>  <r_lp_Energy>  (201) 
38.3835

>  <b_lp_Chiralities_Consistent>  (201) 
1

>  <s_lp_Variant>  (201) 
56:0-3

>  <s_i_glide_gridfile>  (201) 
pfpi4k_grid

>  <i_i_glide_lignum>  (201) 
2

>  <i_i_glide_rotatable_bonds>  (201) 
2

>  <r_i_docking_score>  (201) 
-3.89104

>  <r_i_glide_ligand_efficiency>  (201) 
-0.194552

>  <r_i_glide_ligand_efficiency_sa>  (201) 
-0.528095

>  <r_i_glide_ligand_efficiency_ln>  (201) 
-0.973798

>  <r_i_glide_gscore>  (201) 
-3.89104

>  <r_i_glide_lipo>  (201) 
-0.446368

>  <r_i_glide_hbond>  (201) 
0

>  <r_i_glide_metal>  (201) 
-0

>  <r_i_glide_rewards>  (201) 
-1.65759

>  <r_i_glide_evdw>  (201) 
-26.0121

>  <r_i_glide_ecoul>  (201) 
-5.6239

>  <r_i_glide_erotb>  (201) 
0.492755

>  <r_i_glide_esite>  (201) 
-0.135642

>  <r_i_glide_emodel>  (201) 
-41.0237

>  <r_i_glide_energy>  (201) 
-31.636

>  <r_i_glide_einternal>  (201) 
1.37568

>  <r_i_glide_intrahb_reward>  (201) 
-0

>  <i_i_glide_confnum>  (201) 
6

>  <i_i_glide_posenum>  (201) 
6

>  <r_i_glide_eff_state_penalty>  (201) 
0

>  <ligand_id>  (201) 
56

>  <original_smiles>  (201) 
O=C(c1cnc2c[nH]nc2c1)N1CCn2ccnc2C1

>  <smiles>  (201) 
[H]c1nc2c([H])n([H])nc2c([H])c1C(=O)N1C([H])([H])c2n(c([H])c([H])[n+]2[H])C([H])([H])C1([H])[H]

$$$$
58:0:0
     RDKit          3D

 34 38  0  0  1  0  0  0  0  0999 V2000
   -3.7722    3.4815    9.4303 C   0  0  0  0  0  0  0  0  0  0  0  0
   -2.8551    2.8652    8.5024 N   0  0  0  0  0  0  0  0  0  0  0  0
   -2.9076    2.8606    7.1255 C   0  0  0  0  0  0  0  0  0  0  0  0
   -1.8260    2.1371    6.7280 C   0  0  0  0  0  0  0  0  0  0  0  0
   -1.4483    1.8427    5.4025 N   0  0  0  0  0  0  0  0  0  0  0  0
   -1.0375    2.7728    4.5267 C   0  0  0  0  0  0  0  0  0  0  0  0
   -0.9937    3.9899    4.7253 O   0  0  0  0  0  0  0  0  0  0  0  0
   -0.6387    2.1173    3.2054 C   0  0  2  0  0  0  0  0  0  0  0  0
   -0.8861    0.6161    3.4707 C   0  0  2  0  0  0  0  0  0  0  0  0
   -1.3848    0.5954    4.9151 C   0  0  0  0  0  0  0  0  0  0  0  0
   -1.7089   -0.4365    5.5127 O   0  0  0  0  0  0  0  0  0  0  0  0
    0.4995   -0.0259    3.1714 C   0  0  1  0  0  0  0  0  0  0  0  0
    0.8827    0.8530    1.9712 C   0  0  0  0  0  0  0  0  0  0  0  0
    0.8628    2.1474    2.7965 C   0  0  2  0  0  0  0  0  0  0  0  0
    1.7845    1.8214    3.9710 C   0  0  2  0  0  0  0  0  0  0  0  0
    2.9486    0.8499    3.9228 C   0  0  0  0  0  0  0  0  0  0  0  0
    1.5436    0.3588    4.2231 C   0  0  2  0  0  0  0  0  0  0  0  0
   -1.1460    1.7428    7.9085 C   0  0  0  0  0  0  0  0  0  0  0  0
   -1.7907    2.1748    8.9803 N   0  0  0  0  0  0  0  0  0  0  0  0
   -4.5793    3.9760    8.8861 H   0  0  0  0  0  0  0  0  0  0  0  0
   -3.2446    4.2184   10.0373 H   0  0  0  0  0  0  0  0  0  0  0  0
   -4.1983    2.7218   10.0839 H   0  0  0  0  0  0  0  0  0  0  0  0
   -3.6873    3.3429    6.5573 H   0  0  0  0  0  0  0  0  0  0  0  0
   -1.2804    2.4868    2.4038 H   0  0  0  0  0  0  0  0  0  0  0  0
   -1.6604    0.2343    2.8060 H   0  0  0  0  0  0  0  0  0  0  0  0
    0.4749   -1.0979    2.9713 H   0  0  0  0  0  0  0  0  0  0  0  0
    1.8477    0.6170    1.5251 H   0  0  0  0  0  0  0  0  0  0  0  0
    0.1444    0.8461    1.1670 H   0  0  0  0  0  0  0  0  0  0  0  0
    1.1784    3.0381    2.2569 H   0  0  0  0  0  0  0  0  0  0  0  0
    1.7730    2.5095    4.8142 H   0  0  0  0  0  0  0  0  0  0  0  0
    3.4016    0.6129    2.9592 H   0  0  0  0  0  0  0  0  0  0  0  0
    3.6513    0.8793    4.7511 H   0  0  0  0  0  0  0  0  0  0  0  0
    1.3620    0.0328    5.2453 H   0  0  0  0  0  0  0  0  0  0  0  0
   -0.2402    1.1647    8.0192 H   0  0  0  0  0  0  0  0  0  0  0  0
  1  2  1  0
  1 20  1  0
  1 21  1  0
  1 22  1  0
  2 19  1  0
  2  3  1  0
  3  4  2  0
  3 23  1  0
  4 18  1  0
  4  5  1  0
  5 10  1  0
  5  6  1  0
  6  7  2  0
  6  8  1  0
  8 14  1  0
  8 24  1  6
  8  9  1  0
  9 12  1  0
  9 25  1  6
  9 10  1  0
 10 11  2  0
 12 17  1  0
 12 13  1  0
 12 26  1  6
 13 14  1  0
 13 27  1  0
 13 28  1  0
 14 15  1  0
 14 29  1  6
 15 17  1  0
 15 16  1  0
 15 30  1  1
 16 17  1  0
 16 31  1  0
 16 32  1  0
 17 33  1  1
 18 19  2  0
 18 34  1  0
M  END
>  <i_m_ct_stereo_status>  (202) 
1

>  <s_m_source_file>  (202) 
/var/tmp/pbs.5083858.sched01/tmps_tfv_6k/80a84567nl.sdf

>  <i_m_source_file_index>  (202) 
5

>  <i_lp_mmshare_version>  (202) 
48012

>  <i_f3d_flags>  (202) 
0

>  <s_epik_input>  (202) 
W0NIM11uMVtjSF1jKFtjSF1uMSktbihjMltPSF0pYyhbT0hdKWMoYzIzKVtDQEBIXTRbQ0BASF01W0NAQEhdKFtDSDJdNSlbQ0BIXTNbQ0gyXTQ=

>  <s_epik_cmdline>  (202) 
J2VwaWtfcHl0aG9uJywgJy1waHQnLCAnMi4wJywgJy1waCcsICc3LjAnLCAnLXRuJywgJzgnLCAnLW1hJywgJzIwMCcsICctaW1hZScsICc8aW5maWxlLm1hZT4nLCAnLW9tYWUnLCAnPG91dGZpbGUubWFlPic=

>  <r_lp_tautomer_probability>  (202) 
1

>  <r_epik_Ionization_Penalty>  (202) 
6.97378e-06

>  <r_epik_Ionization_Penalty_Charging>  (202) 
0

>  <r_epik_Ionization_Penalty_Neutral>  (202) 
6.97378e-06

>  <r_epik_State_Penalty>  (202) 
-0

>  <r_epik_Charging_Adjusted_Penalty>  (202) 
0

>  <i_epik_Tot_Q>  (202) 
0

>  <i_epik_Tot_abs_Q>  (202) 
0

>  <s_lp_Force_Field>  (202) 
OPLS3e

>  <r_lp_Energy>  (202) 
50.7113

>  <b_lp_Chiralities_Consistent>  (202) 
1

>  <s_lp_Variant>  (202) 
58:0-1

>  <s_i_glide_gridfile>  (202) 
pfpi4k_grid

>  <i_i_glide_lignum>  (202) 
5

>  <i_i_glide_rotatable_bonds>  (202) 
1

>  <r_i_docking_score>  (202) 
-3.5593

>  <r_i_glide_ligand_efficiency>  (202) 
-0.187332

>  <r_i_glide_ligand_efficiency_sa>  (202) 
-0.499876

>  <r_i_glide_ligand_efficiency_ln>  (202) 
-0.902359

>  <r_i_glide_gscore>  (202) 
-3.5593

>  <r_i_glide_lipo>  (202) 
-0.347438

>  <r_i_glide_hbond>  (202) 
0

>  <r_i_glide_metal>  (202) 
-0

>  <r_i_glide_rewards>  (202) 
-1.75395

>  <r_i_glide_evdw>  (202) 
-21.8969

>  <r_i_glide_ecoul>  (202) 
-3.75305

>  <r_i_glide_erotb>  (202) 
0.266519

>  <r_i_glide_esite>  (202) 
-0.0666251

>  <r_i_glide_emodel>  (202) 
-30.8594

>  <r_i_glide_energy>  (202) 
-25.6499

>  <r_i_glide_einternal>  (202) 
1.81835

>  <r_i_glide_intrahb_reward>  (202) 
-0

>  <i_i_glide_confnum>  (202) 
3

>  <i_i_glide_posenum>  (202) 
1

>  <r_i_glide_eff_state_penalty>  (202) 
0

>  <ligand_id>  (202) 
58

>  <original_smiles>  (202) 
Cn1cc(-n2c(O)c3c(c2O)C2CC3C3CC23)cn1

>  <smiles>  (202) 
[H]c1nn(C([H])([H])[H])c([H])c1N1C(=O)C2([H])C([H])(C1=O)C1([H])C([H])([H])C2([H])C2([H])C([H])([H])C12[H]

$$$$
58:0:1
     RDKit          3D

 34 38  0  0  1  0  0  0  0  0999 V2000
    2.3409   -0.0337   -4.9159 C   0  0  0  0  0  0  0  0  0  0  0  0
    3.0838   -0.6362   -3.8360 N   0  0  0  0  0  0  0  0  0  0  0  0
    2.8184   -1.8065   -3.1467 C   0  0  0  0  0  0  0  0  0  0  0  0
    3.8110   -1.9131   -2.2126 C   0  0  0  0  0  0  0  0  0  0  0  0
    3.9909   -2.9415   -1.2391 N   0  0  0  0  0  0  0  0  0  0  0  0
    5.1635   -3.1961   -0.6218 C   0  0  0  0  0  0  0  0  0  0  0  0
    6.2477   -2.6304   -0.8173 O   0  0  0  0  0  0  0  0  0  0  0  0
    5.0150   -4.3298    0.3853 C   0  0  2  0  0  0  0  0  0  0  0  0
    3.5235   -4.7011    0.2703 C   0  0  2  0  0  0  0  0  0  0  0  0
    3.0017   -3.7358   -0.7751 C   0  0  0  0  0  0  0  0  0  0  0  0
    1.8133   -3.7465   -1.1144 O   0  0  0  0  0  0  0  0  0  0  0  0
    2.9946   -4.5174    1.7173 C   0  0  1  0  0  0  0  0  0  0  0  0
    4.2289   -5.0698    2.4439 C   0  0  0  0  0  0  0  0  0  0  0  0
    5.1650   -3.9824    1.8922 C   0  0  2  0  0  0  0  0  0  0  0  0
    4.4355   -2.6855    2.2526 C   0  0  2  0  0  0  0  0  0  0  0  0
    3.5139   -2.4997    3.4410 C   0  0  0  0  0  0  0  0  0  0  0  0
    2.9772   -3.0437    2.1335 C   0  0  2  0  0  0  0  0  0  0  0  0
    4.6158   -0.7565   -2.3975 C   0  0  0  0  0  0  0  0  0  0  0  0
    4.1854   -0.0087   -3.3942 N   0  0  0  0  0  0  0  0  0  0  0  0
    1.4546   -0.6323   -5.1254 H   0  0  0  0  0  0  0  0  0  0  0  0
    2.9742    0.0281   -5.8049 H   0  0  0  0  0  0  0  0  0  0  0  0
    2.0201    0.9679   -4.6295 H   0  0  0  0  0  0  0  0  0  0  0  0
    1.9672   -2.4301   -3.3612 H   0  0  0  0  0  0  0  0  0  0  0  0
    5.6512   -5.1679    0.0912 H   0  0  0  0  0  0  0  0  0  0  0  0
    3.3948   -5.7231   -0.0925 H   0  0  0  0  0  0  0  0  0  0  0  0
    2.0513   -5.0227    1.9229 H   0  0  0  0  0  0  0  0  0  0  0  0
    4.1381   -5.0729    3.5289 H   0  0  0  0  0  0  0  0  0  0  0  0
    4.5012   -6.0808    2.1220 H   0  0  0  0  0  0  0  0  0  0  0  0
    6.1892   -4.0059    2.2631 H   0  0  0  0  0  0  0  0  0  0  0  0
    4.7820   -1.7703    1.7749 H   0  0  0  0  0  0  0  0  0  0  0  0
    3.6064   -3.1669    4.2976 H   0  0  0  0  0  0  0  0  0  0  0  0
    3.2421   -1.4758    3.6876 H   0  0  0  0  0  0  0  0  0  0  0  0
    2.3283   -2.3726    1.5711 H   0  0  0  0  0  0  0  0  0  0  0  0
    5.5056   -0.4379   -1.8776 H   0  0  0  0  0  0  0  0  0  0  0  0
  1  2  1  0
  1 20  1  0
  1 21  1  0
  1 22  1  0
  2 19  1  0
  2  3  1  0
  3  4  2  0
  3 23  1  0
  4 18  1  0
  4  5  1  0
  5 10  1  0
  5  6  1  0
  6  7  2  0
  6  8  1  0
  8 14  1  0
  8 24  1  6
  8  9  1  0
  9 12  1  0
  9 25  1  6
  9 10  1  0
 10 11  2  0
 12 17  1  0
 12 13  1  0
 12 26  1  6
 13 14  1  0
 13 27  1  0
 13 28  1  0
 14 15  1  0
 14 29  1  1
 15 17  1  0
 15 16  1  0
 15 30  1  6
 16 17  1  0
 16 31  1  0
 16 32  1  0
 17 33  1  6
 18 19  2  0
 18 34  1  0
M  END
>  <i_m_ct_stereo_status>  (203) 
1

>  <s_m_source_file>  (203) 
/var/tmp/pbs.5083858.sched01/tmps_tfv_6k/80a84567nl.sdf

>  <i_m_source_file_index>  (203) 
5

>  <i_lp_mmshare_version>  (203) 
48012

>  <i_f3d_flags>  (203) 
0

>  <s_epik_input>  (203) 
W0NIM11uMVtjSF1jKFtjSF1uMSktbihjMltPSF0pYyhbT0hdKWMoYzIzKVtDQEBIXTRbQ0BASF01W0NAQEhdKFtDSDJdNSlbQ0BIXTNbQ0gyXTQ=

>  <s_epik_cmdline>  (203) 
J2VwaWtfcHl0aG9uJywgJy1waHQnLCAnMi4wJywgJy1waCcsICc3LjAnLCAnLXRuJywgJzgnLCAnLW1hJywgJzIwMCcsICctaW1hZScsICc8aW5maWxlLm1hZT4nLCAnLW9tYWUnLCAnPG91dGZpbGUubWFlPic=

>  <r_lp_tautomer_probability>  (203) 
1

>  <r_epik_Ionization_Penalty>  (203) 
6.97378e-06

>  <r_epik_Ionization_Penalty_Charging>  (203) 
0

>  <r_epik_Ionization_Penalty_Neutral>  (203) 
6.97378e-06

>  <r_epik_State_Penalty>  (203) 
-0

>  <r_epik_Charging_Adjusted_Penalty>  (203) 
0

>  <i_epik_Tot_Q>  (203) 
0

>  <i_epik_Tot_abs_Q>  (203) 
0

>  <s_lp_Force_Field>  (203) 
OPLS3e

>  <r_lp_Energy>  (203) 
50.7113

>  <b_lp_Chiralities_Consistent>  (203) 
1

>  <s_lp_Variant>  (203) 
58:0-1

>  <s_i_glide_gridfile>  (203) 
pfpi4k_grid

>  <i_i_glide_lignum>  (203) 
5

>  <i_i_glide_rotatable_bonds>  (203) 
1

>  <r_i_docking_score>  (203) 
-3.28138

>  <r_i_glide_ligand_efficiency>  (203) 
-0.172704

>  <r_i_glide_ligand_efficiency_sa>  (203) 
-0.460845

>  <r_i_glide_ligand_efficiency_ln>  (203) 
-0.831901

>  <r_i_glide_gscore>  (203) 
-3.28138

>  <r_i_glide_lipo>  (203) 
-0.117384

>  <r_i_glide_hbond>  (203) 
-0.0147877

>  <r_i_glide_metal>  (203) 
-0

>  <r_i_glide_rewards>  (203) 
-2.02602

>  <r_i_glide_evdw>  (203) 
-21.2458

>  <r_i_glide_ecoul>  (203) 
-2.04424

>  <r_i_glide_erotb>  (203) 
0.266519

>  <r_i_glide_esite>  (203) 
-0.0207832

>  <r_i_glide_emodel>  (203) 
-28.8778

>  <r_i_glide_energy>  (203) 
-23.2901

>  <r_i_glide_einternal>  (203) 
0.113873

>  <r_i_glide_intrahb_reward>  (203) 
-0

>  <i_i_glide_confnum>  (203) 
4

>  <i_i_glide_posenum>  (203) 
2

>  <r_i_glide_eff_state_penalty>  (203) 
0

>  <ligand_id>  (203) 
58

>  <original_smiles>  (203) 
Cn1cc(-n2c(O)c3c(c2O)C2CC3C3CC23)cn1

>  <smiles>  (203) 
[H]c1nn(C([H])([H])[H])c([H])c1N1C(=O)C2([H])C([H])(C1=O)C1([H])C([H])([H])C2([H])C2([H])C([H])([H])C12[H]

$$$$
58:0:2
     RDKit          3D

 34 38  0  0  1  0  0  0  0  0999 V2000
   -2.5816    2.6355    9.5468 C   0  0  0  0  0  0  0  0  0  0  0  0
   -1.9935    2.5126    8.2334 N   0  0  0  0  0  0  0  0  0  0  0  0
   -1.2109    3.4275    7.5635 C   0  0  0  0  0  0  0  0  0  0  0  0
   -0.9109    2.8534    6.3616 C   0  0  0  0  0  0  0  0  0  0  0  0
   -0.1152    3.4043    5.3164 N   0  0  0  0  0  0  0  0  0  0  0  0
    0.0134    4.7221    5.0714 C   0  0  0  0  0  0  0  0  0  0  0  0
   -0.5518    5.6434    5.6659 O   0  0  0  0  0  0  0  0  0  0  0  0
    0.9501    4.9711    3.8965 C   0  0  2  0  0  0  0  0  0  0  0  0
    1.3718    3.5504    3.4886 C   0  0  2  0  0  0  0  0  0  0  0  0
    0.6244    2.6613    4.4727 C   0  0  0  0  0  0  0  0  0  0  0  0
    0.7222    1.4340    4.4628 O   0  0  0  0  0  0  0  0  0  0  0  0
    2.9167    3.5963    3.6019 C   0  0  1  0  0  0  0  0  0  0  0  0
    3.1151    5.0263    3.0692 C   0  0  0  0  0  0  0  0  0  0  0  0
    2.3049    5.6638    4.2059 C   0  0  2  0  0  0  0  0  0  0  0  0
    2.9645    5.0913    5.4649 C   0  0  2  0  0  0  0  0  0  0  0  0
    4.4163    4.6754    5.5865 C   0  0  0  0  0  0  0  0  0  0  0  0
    3.3784    3.7036    5.0576 C   0  0  2  0  0  0  0  0  0  0  0  0
   -1.5490    1.5818    6.3749 C   0  0  0  0  0  0  0  0  0  0  0  0
   -2.1901    1.3780    7.5165 N   0  0  0  0  0  0  0  0  0  0  0  0
   -2.3163    3.6004    9.9831 H   0  0  0  0  0  0  0  0  0  0  0  0
   -2.2009    1.8479   10.1986 H   0  0  0  0  0  0  0  0  0  0  0  0
   -3.6687    2.5691    9.4758 H   0  0  0  0  0  0  0  0  0  0  0  0
   -0.9382    4.3817    7.9922 H   0  0  0  0  0  0  0  0  0  0  0  0
    0.4151    5.4695    3.0855 H   0  0  0  0  0  0  0  0  0  0  0  0
    1.0550    3.3121    2.4772 H   0  0  0  0  0  0  0  0  0  0  0  0
    3.4125    2.7973    3.0525 H   0  0  0  0  0  0  0  0  0  0  0  0
    4.1479    5.3622    3.0326 H   0  0  0  0  0  0  0  0  0  0  0  0
    2.6759    5.1783    2.0791 H   0  0  0  0  0  0  0  0  0  0  0  0
    2.2679    6.7552    4.2063 H   0  0  0  0  0  0  0  0  0  0  0  0
    2.4307    5.2135    6.4055 H   0  0  0  0  0  0  0  0  0  0  0  0
    5.1436    5.1047    4.8976 H   0  0  0  0  0  0  0  0  0  0  0  0
    4.7906    4.4929    6.5895 H   0  0  0  0  0  0  0  0  0  0  0  0
    3.1318    2.8751    5.7204 H   0  0  0  0  0  0  0  0  0  0  0  0
   -1.5685    0.8198    5.6109 H   0  0  0  0  0  0  0  0  0  0  0  0
  1  2  1  0
  1 20  1  0
  1 21  1  0
  1 22  1  0
  2 19  1  0
  2  3  1  0
  3  4  2  0
  3 23  1  0
  4 18  1  0
  4  5  1  0
  5 10  1  0
  5  6  1  0
  6  7  2  0
  6  8  1  0
  8 14  1  0
  8 24  1  6
  8  9  1  0
  9 12  1  0
  9 25  1  6
  9 10  1  0
 10 11  2  0
 12 17  1  0
 12 13  1  0
 12 26  1  6
 13 14  1  0
 13 27  1  0
 13 28  1  0
 14 15  1  0
 14 29  1  1
 15 17  1  0
 15 16  1  0
 15 30  1  1
 16 17  1  0
 16 31  1  0
 16 32  1  0
 17 33  1  1
 18 19  2  0
 18 34  1  0
M  END
>  <i_m_ct_stereo_status>  (204) 
1

>  <s_m_source_file>  (204) 
/var/tmp/pbs.5083858.sched01/tmps_tfv_6k/80a84567nl.sdf

>  <i_m_source_file_index>  (204) 
5

>  <i_lp_mmshare_version>  (204) 
48012

>  <i_f3d_flags>  (204) 
0

>  <s_epik_input>  (204) 
W0NIM11uMVtjSF1jKFtjSF1uMSktbihjMltPSF0pYyhbT0hdKWMoYzIzKVtDQEBIXTRbQ0BASF01W0NAQEhdKFtDSDJdNSlbQ0BIXTNbQ0gyXTQ=

>  <s_epik_cmdline>  (204) 
J2VwaWtfcHl0aG9uJywgJy1waHQnLCAnMi4wJywgJy1waCcsICc3LjAnLCAnLXRuJywgJzgnLCAnLW1hJywgJzIwMCcsICctaW1hZScsICc8aW5maWxlLm1hZT4nLCAnLW9tYWUnLCAnPG91dGZpbGUubWFlPic=

>  <r_lp_tautomer_probability>  (204) 
1

>  <r_epik_Ionization_Penalty>  (204) 
6.97378e-06

>  <r_epik_Ionization_Penalty_Charging>  (204) 
0

>  <r_epik_Ionization_Penalty_Neutral>  (204) 
6.97378e-06

>  <r_epik_State_Penalty>  (204) 
-0

>  <r_epik_Charging_Adjusted_Penalty>  (204) 
0

>  <i_epik_Tot_Q>  (204) 
0

>  <i_epik_Tot_abs_Q>  (204) 
0

>  <s_lp_Force_Field>  (204) 
OPLS3e

>  <r_lp_Energy>  (204) 
50.7113

>  <b_lp_Chiralities_Consistent>  (204) 
1

>  <s_lp_Variant>  (204) 
58:0-1

>  <s_i_glide_gridfile>  (204) 
pfpi4k_grid

>  <i_i_glide_lignum>  (204) 
5

>  <i_i_glide_rotatable_bonds>  (204) 
1

>  <r_i_docking_score>  (204) 
-3.27087

>  <r_i_glide_ligand_efficiency>  (204) 
-0.172151

>  <r_i_glide_ligand_efficiency_sa>  (204) 
-0.459368

>  <r_i_glide_ligand_efficiency_ln>  (204) 
-0.829236

>  <r_i_glide_gscore>  (204) 
-3.27087

>  <r_i_glide_lipo>  (204) 
-0.144003

>  <r_i_glide_hbond>  (204) 
-0.149217

>  <r_i_glide_metal>  (204) 
-0

>  <r_i_glide_rewards>  (204) 
-1.65486

>  <r_i_glide_evdw>  (204) 
-14.9021

>  <r_i_glide_ecoul>  (204) 
-5.16491

>  <r_i_glide_erotb>  (204) 
0.266519

>  <r_i_glide_esite>  (204) 
-0.06947

>  <r_i_glide_emodel>  (204) 
-25.7213

>  <r_i_glide_energy>  (204) 
-20.067

>  <r_i_glide_einternal>  (204) 
0.011666

>  <r_i_glide_intrahb_reward>  (204) 
-0

>  <i_i_glide_confnum>  (204) 
3

>  <i_i_glide_posenum>  (204) 
20

>  <r_i_glide_eff_state_penalty>  (204) 
0

>  <ligand_id>  (204) 
58

>  <original_smiles>  (204) 
Cn1cc(-n2c(O)c3c(c2O)C2CC3C3CC23)cn1

>  <smiles>  (204) 
[H]c1nn(C([H])([H])[H])c([H])c1N1C(=O)C2([H])C([H])(C1=O)C1([H])C([H])([H])C2([H])C2([H])C([H])([H])C12[H]

$$$$
58:1:0
     RDKit          3D

 34 38  0  0  1  0  0  0  0  0999 V2000
   -3.8416    3.6552    9.5124 C   0  0  0  0  0  0  0  0  0  0  0  0
   -2.8988    2.9456    8.6902 N   0  0  0  0  0  0  0  0  0  0  0  0
   -2.8854    2.8182    7.3190 C   0  0  0  0  0  0  0  0  0  0  0  0
   -1.8025    2.0410    7.0382 C   0  0  0  0  0  0  0  0  0  0  0  0
   -1.3759    1.6188    5.7577 N   0  0  0  0  0  0  0  0  0  0  0  0
   -0.9676    0.3698    5.4904 C   0  0  0  0  0  0  0  0  0  0  0  0
   -0.9615   -0.5777    6.2804 O   0  0  0  0  0  0  0  0  0  0  0  0
   -0.5337    0.2428    4.0331 C   0  0  1  0  0  0  0  0  0  0  0  0
   -0.7409    1.6716    3.4820 C   0  0  1  0  0  0  0  0  0  0  0  0
   -1.2683    2.4356    4.6962 C   0  0  0  0  0  0  0  0  0  0  0  0
   -1.5432    3.6384    4.6697 O   0  0  0  0  0  0  0  0  0  0  0  0
    0.6911    2.0611    3.0209 C   0  0  1  0  0  0  0  0  0  0  0  0
    1.5706    1.3916    4.0924 C   0  0  0  0  0  0  0  0  0  0  0  0
    0.9838   -0.0005    3.8067 C   0  0  2  0  0  0  0  0  0  0  0  0
    1.1864   -0.1566    2.3034 C   0  0  2  0  0  0  0  0  0  0  0  0
    2.2804    0.4975    1.4844 C   0  0  0  0  0  0  0  0  0  0  0  0
    0.9889    1.2402    1.7701 C   0  0  2  0  0  0  0  0  0  0  0  0
   -1.1936    1.7436    8.2868 C   0  0  0  0  0  0  0  0  0  0  0  0
   -1.8701    2.2910    9.2807 N   0  0  0  0  0  0  0  0  0  0  0  0
   -4.6045    4.1188    8.8832 H   0  0  0  0  0  0  0  0  0  0  0  0
   -3.3266    4.4328   10.0798 H   0  0  0  0  0  0  0  0  0  0  0  0
   -4.3239    2.9606   10.2036 H   0  0  0  0  0  0  0  0  0  0  0  0
   -3.6272    3.2659    6.6755 H   0  0  0  0  0  0  0  0  0  0  0  0
   -1.1625   -0.4945    3.5386 H   0  0  0  0  0  0  0  0  0  0  0  0
   -1.4753    1.7111    2.6757 H   0  0  0  0  0  0  0  0  0  0  0  0
    0.8612    3.1293    2.8692 H   0  0  0  0  0  0  0  0  0  0  0  0
    2.6403    1.4695    3.9021 H   0  0  0  0  0  0  0  0  0  0  0  0
    1.4075    1.7531    5.1071 H   0  0  0  0  0  0  0  0  0  0  0  0
    1.4204   -0.8254    4.3749 H   0  0  0  0  0  0  0  0  0  0  0  0
    0.6348   -0.9620    1.8211 H   0  0  0  0  0  0  0  0  0  0  0  0
    3.1987    0.8196    1.9768 H   0  0  0  0  0  0  0  0  0  0  0  0
    2.4154    0.1126    0.4802 H   0  0  0  0  0  0  0  0  0  0  0  0
    0.3016    1.3710    0.9347 H   0  0  0  0  0  0  0  0  0  0  0  0
   -0.3106    1.1599    8.4992 H   0  0  0  0  0  0  0  0  0  0  0  0
  1  2  1  0
  1 20  1  0
  1 21  1  0
  1 22  1  0
  2 19  1  0
  2  3  1  0
  3  4  2  0
  3 23  1  0
  4 18  1  0
  4  5  1  0
  5 10  1  0
  5  6  1  0
  6  7  2  0
  6  8  1  0
  8 14  1  0
  8 24  1  6
  8  9  1  0
  9 12  1  0
  9 25  1  6
  9 10  1  0
 10 11  2  0
 12 17  1  0
 12 13  1  0
 12 26  1  6
 13 14  1  0
 13 27  1  0
 13 28  1  0
 14 15  1  0
 14 29  1  1
 15 17  1  0
 15 16  1  0
 15 30  1  6
 16 17  1  0
 16 31  1  0
 16 32  1  0
 17 33  1  6
 18 19  2  0
 18 34  1  0
M  END
>  <i_m_ct_stereo_status>  (205) 
1

>  <s_m_source_file>  (205) 
/var/tmp/pbs.5083858.sched01/tmpq77br8kz/85iinevzok.sdf

>  <i_m_source_file_index>  (205) 
1

>  <i_lp_mmshare_version>  (205) 
48012

>  <i_f3d_flags>  (205) 
0

>  <s_epik_input>  (205) 
W0NIM11uMVtjSF1jKFtjSF1uMSktbihjMltPSF0pYyhbT0hdKWMoYzIzKVtDQEBIXTRbQ0BASF01W0NAQEhdKFtDSDJdNSlbQ0BIXTNbQ0gyXTQ=

>  <s_epik_cmdline>  (205) 
J2VwaWtfcHl0aG9uJywgJy1waHQnLCAnMi4wJywgJy1waCcsICc3LjAnLCAnLXRuJywgJzgnLCAnLW1hJywgJzIwMCcsICctaW1hZScsICc8aW5maWxlLm1hZT4nLCAnLW9tYWUnLCAnPG91dGZpbGUubWFlPic=

>  <r_lp_tautomer_probability>  (205) 
1

>  <r_epik_Ionization_Penalty>  (205) 
6.97378e-06

>  <r_epik_Ionization_Penalty_Charging>  (205) 
0

>  <r_epik_Ionization_Penalty_Neutral>  (205) 
6.97378e-06

>  <r_epik_State_Penalty>  (205) 
-0

>  <r_epik_Charging_Adjusted_Penalty>  (205) 
0

>  <i_epik_Tot_Q>  (205) 
0

>  <i_epik_Tot_abs_Q>  (205) 
0

>  <s_lp_Force_Field>  (205) 
OPLS3e

>  <r_lp_Energy>  (205) 
50.6382

>  <b_lp_Chiralities_Consistent>  (205) 
1

>  <s_lp_Variant>  (205) 
58:0-2

>  <s_i_glide_gridfile>  (205) 
pfpi4k_grid

>  <i_i_glide_lignum>  (205) 
1

>  <i_i_glide_rotatable_bonds>  (205) 
1

>  <r_i_docking_score>  (205) 
-3.58933

>  <r_i_glide_ligand_efficiency>  (205) 
-0.188912

>  <r_i_glide_ligand_efficiency_sa>  (205) 
-0.504093

>  <r_i_glide_ligand_efficiency_ln>  (205) 
-0.909972

>  <r_i_glide_gscore>  (205) 
-3.58933

>  <r_i_glide_lipo>  (205) 
-0.407617

>  <r_i_glide_hbond>  (205) 
-0.0476062

>  <r_i_glide_metal>  (205) 
-0

>  <r_i_glide_rewards>  (205) 
-1.69582

>  <r_i_glide_evdw>  (205) 
-21.7052

>  <r_i_glide_ecoul>  (205) 
-3.70509

>  <r_i_glide_erotb>  (205) 
0.266519

>  <r_i_glide_esite>  (205) 
-0.063783

>  <r_i_glide_emodel>  (205) 
-31.5918

>  <r_i_glide_energy>  (205) 
-25.4103

>  <r_i_glide_einternal>  (205) 
0.545653

>  <r_i_glide_intrahb_reward>  (205) 
-0

>  <i_i_glide_confnum>  (205) 
1

>  <i_i_glide_posenum>  (205) 
1

>  <r_i_glide_eff_state_penalty>  (205) 
0

>  <ligand_id>  (205) 
58

>  <original_smiles>  (205) 
Cn1cc(-n2c(O)c3c(c2O)C2CC3C3CC23)cn1

>  <smiles>  (205) 
[H]c1nn(C([H])([H])[H])c([H])c1N1C(=O)C2([H])C([H])(C1=O)C1([H])C([H])([H])C2([H])C2([H])C([H])([H])C12[H]

$$$$
58:1:1
     RDKit          3D

 34 38  0  0  1  0  0  0  0  0999 V2000
   -2.1804    2.5951   10.4546 C   0  0  0  0  0  0  0  0  0  0  0  0
   -2.2595    2.5437    9.0151 N   0  0  0  0  0  0  0  0  0  0  0  0
   -1.4220    1.8877    8.1346 C   0  0  0  0  0  0  0  0  0  0  0  0
   -1.9302    2.1416    6.8936 C   0  0  0  0  0  0  0  0  0  0  0  0
   -1.4361    1.6959    5.6441 N   0  0  0  0  0  0  0  0  0  0  0  0
   -1.0218    0.4438    5.4115 C   0  0  0  0  0  0  0  0  0  0  0  0
   -1.0325   -0.4914    6.2168 O   0  0  0  0  0  0  0  0  0  0  0  0
   -0.5532    0.2896    3.9670 C   0  0  1  0  0  0  0  0  0  0  0  0
   -0.7640    1.7013    3.3756 C   0  0  1  0  0  0  0  0  0  0  0  0
   -1.3324    2.4851    4.5606 C   0  0  0  0  0  0  0  0  0  0  0  0
   -1.6426    3.6769    4.4931 O   0  0  0  0  0  0  0  0  0  0  0  0
    0.6771    2.1019    2.9526 C   0  0  1  0  0  0  0  0  0  0  0  0
    1.5274    1.4763    4.0700 C   0  0  0  0  0  0  0  0  0  0  0  0
    0.9738    0.0675    3.7989 C   0  0  2  0  0  0  0  0  0  0  0  0
    1.2319   -0.1265    2.3093 C   0  0  2  0  0  0  0  0  0  0  0  0
    2.3389    0.5225    1.5050 C   0  0  0  0  0  0  0  0  0  0  0  0
    1.0302    1.2540    1.7349 C   0  0  2  0  0  0  0  0  0  0  0  0
   -3.0766    2.9455    7.0998 C   0  0  0  0  0  0  0  0  0  0  0  0
   -3.2741    3.1815    8.3866 N   0  0  0  0  0  0  0  0  0  0  0  0
   -1.3233    2.0174   10.8033 H   0  0  0  0  0  0  0  0  0  0  0  0
   -3.0891    2.1681   10.8797 H   0  0  0  0  0  0  0  0  0  0  0  0
   -2.0742    3.6290   10.7858 H   0  0  0  0  0  0  0  0  0  0  0  0
   -0.5650    1.3171    8.4591 H   0  0  0  0  0  0  0  0  0  0  0  0
   -1.1572   -0.4672    3.4691 H   0  0  0  0  0  0  0  0  0  0  0  0
   -1.4744    1.7140    2.5444 H   0  0  0  0  0  0  0  0  0  0  0  0
    0.8352    3.1686    2.7810 H   0  0  0  0  0  0  0  0  0  0  0  0
    2.6007    1.5685    3.9129 H   0  0  0  0  0  0  0  0  0  0  0  0
    1.3227    1.8646    5.0685 H   0  0  0  0  0  0  0  0  0  0  0  0
    1.3999   -0.7331    4.4067 H   0  0  0  0  0  0  0  0  0  0  0  0
    0.7045   -0.9498    1.8326 H   0  0  0  0  0  0  0  0  0  0  0  0
    3.2371    0.8691    2.0148 H   0  0  0  0  0  0  0  0  0  0  0  0
    2.5078    0.1190    0.5104 H   0  0  0  0  0  0  0  0  0  0  0  0
    0.3571    1.3466    0.8851 H   0  0  0  0  0  0  0  0  0  0  0  0
   -3.7575    3.3441    6.3620 H   0  0  0  0  0  0  0  0  0  0  0  0
  1  2  1  0
  1 20  1  0
  1 21  1  0
  1 22  1  0
  2 19  1  0
  2  3  1  0
  3  4  2  0
  3 23  1  0
  4 18  1  0
  4  5  1  0
  5 10  1  0
  5  6  1  0
  6  7  2  0
  6  8  1  0
  8 14  1  0
  8 24  1  6
  8  9  1  0
  9 12  1  0
  9 25  1  6
  9 10  1  0
 10 11  2  0
 12 17  1  0
 12 13  1  0
 12 26  1  6
 13 14  1  0
 13 27  1  0
 13 28  1  0
 14 15  1  0
 14 29  1  1
 15 17  1  0
 15 16  1  0
 15 30  1  6
 16 17  1  0
 16 31  1  0
 16 32  1  0
 17 33  1  6
 18 19  2  0
 18 34  1  0
M  END
>  <i_m_ct_stereo_status>  (206) 
1

>  <s_m_source_file>  (206) 
/var/tmp/pbs.5083858.sched01/tmpq77br8kz/85iinevzok.sdf

>  <i_m_source_file_index>  (206) 
1

>  <i_lp_mmshare_version>  (206) 
48012

>  <i_f3d_flags>  (206) 
0

>  <s_epik_input>  (206) 
W0NIM11uMVtjSF1jKFtjSF1uMSktbihjMltPSF0pYyhbT0hdKWMoYzIzKVtDQEBIXTRbQ0BASF01W0NAQEhdKFtDSDJdNSlbQ0BIXTNbQ0gyXTQ=

>  <s_epik_cmdline>  (206) 
J2VwaWtfcHl0aG9uJywgJy1waHQnLCAnMi4wJywgJy1waCcsICc3LjAnLCAnLXRuJywgJzgnLCAnLW1hJywgJzIwMCcsICctaW1hZScsICc8aW5maWxlLm1hZT4nLCAnLW9tYWUnLCAnPG91dGZpbGUubWFlPic=

>  <r_lp_tautomer_probability>  (206) 
1

>  <r_epik_Ionization_Penalty>  (206) 
6.97378e-06

>  <r_epik_Ionization_Penalty_Charging>  (206) 
0

>  <r_epik_Ionization_Penalty_Neutral>  (206) 
6.97378e-06

>  <r_epik_State_Penalty>  (206) 
-0

>  <r_epik_Charging_Adjusted_Penalty>  (206) 
0

>  <i_epik_Tot_Q>  (206) 
0

>  <i_epik_Tot_abs_Q>  (206) 
0

>  <s_lp_Force_Field>  (206) 
OPLS3e

>  <r_lp_Energy>  (206) 
50.6382

>  <b_lp_Chiralities_Consistent>  (206) 
1

>  <s_lp_Variant>  (206) 
58:0-2

>  <s_i_glide_gridfile>  (206) 
pfpi4k_grid

>  <i_i_glide_lignum>  (206) 
1

>  <i_i_glide_rotatable_bonds>  (206) 
1

>  <r_i_docking_score>  (206) 
-3.49507

>  <r_i_glide_ligand_efficiency>  (206) 
-0.183951

>  <r_i_glide_ligand_efficiency_sa>  (206) 
-0.490855

>  <r_i_glide_ligand_efficiency_ln>  (206) 
-0.886075

>  <r_i_glide_gscore>  (206) 
-3.49507

>  <r_i_glide_lipo>  (206) 
-0.160535

>  <r_i_glide_hbond>  (206) 
-0.0527023

>  <r_i_glide_metal>  (206) 
-0

>  <r_i_glide_rewards>  (206) 
-1.65486

>  <r_i_glide_evdw>  (206) 
-21.4549

>  <r_i_glide_ecoul>  (206) 
-4.86858

>  <r_i_glide_erotb>  (206) 
0.266519

>  <r_i_glide_esite>  (206) 
-0.0904639

>  <r_i_glide_emodel>  (206) 
-32.3545

>  <r_i_glide_energy>  (206) 
-26.3235

>  <r_i_glide_einternal>  (206) 
0.471891

>  <r_i_glide_intrahb_reward>  (206) 
-0

>  <i_i_glide_confnum>  (206) 
1

>  <i_i_glide_posenum>  (206) 
25

>  <r_i_glide_eff_state_penalty>  (206) 
0

>  <ligand_id>  (206) 
58

>  <original_smiles>  (206) 
Cn1cc(-n2c(O)c3c(c2O)C2CC3C3CC23)cn1

>  <smiles>  (206) 
[H]c1nn(C([H])([H])[H])c([H])c1N1C(=O)C2([H])C([H])(C1=O)C1([H])C([H])([H])C2([H])C2([H])C([H])([H])C12[H]

$$$$
58:1:2
     RDKit          3D

 34 38  0  0  1  0  0  0  0  0999 V2000
    2.2164    0.0642   -4.9943 C   0  0  0  0  0  0  0  0  0  0  0  0
    3.0180   -0.5483   -3.9659 N   0  0  0  0  0  0  0  0  0  0  0  0
    2.8008   -1.7356   -3.2932 C   0  0  0  0  0  0  0  0  0  0  0  0
    3.8266   -1.8435   -2.4016 C   0  0  0  0  0  0  0  0  0  0  0  0
    4.0562   -2.8954   -1.4695 N   0  0  0  0  0  0  0  0  0  0  0  0
    3.0825   -3.6403   -0.9092 C   0  0  0  0  0  0  0  0  0  0  0  0
    1.8725   -3.5642   -1.1081 O   0  0  0  0  0  0  0  0  0  0  0  0
    3.6775   -4.6713    0.0456 C   0  0  1  0  0  0  0  0  0  0  0  0
    5.1910   -4.3917   -0.0305 C   0  0  1  0  0  0  0  0  0  0  0  0
    5.2768   -3.2316   -1.0196 C   0  0  0  0  0  0  0  0  0  0  0  0
    6.3493   -2.7083   -1.3312 O   0  0  0  0  0  0  0  0  0  0  0  0
    5.5435   -4.0291    1.4374 C   0  0  1  0  0  0  0  0  0  0  0  0
    4.2905   -3.2567    1.8817 C   0  0  0  0  0  0  0  0  0  0  0  0
    3.3572   -4.4312    1.5446 C   0  0  2  0  0  0  0  0  0  0  0  0
    3.9714   -5.5978    2.3113 C   0  0  2  0  0  0  0  0  0  0  0  0
    4.7828   -5.4968    3.5842 C   0  0  0  0  0  0  0  0  0  0  0  0
    5.4559   -5.3247    2.2390 C   0  0  2  0  0  0  0  0  0  0  0  0
    4.6064   -0.6759   -2.5856 C   0  0  0  0  0  0  0  0  0  0  0  0
    4.1296    0.0851   -3.5511 N   0  0  0  0  0  0  0  0  0  0  0  0
    1.3410   -0.5615   -5.1435 H   0  0  0  0  0  0  0  0  0  0  0  0
    2.7890    0.1545   -5.9217 H   0  0  0  0  0  0  0  0  0  0  0  0
    1.8634    1.0447   -4.6734 H   0  0  0  0  0  0  0  0  0  0  0  0
    1.9437   -2.3649   -3.4845 H   0  0  0  0  0  0  0  0  0  0  0  0
    3.4127   -5.6737   -0.3003 H   0  0  0  0  0  0  0  0  0  0  0  0
    5.7593   -5.2414   -0.4161 H   0  0  0  0  0  0  0  0  0  0  0  0
    6.4940   -3.5117    1.5778 H   0  0  0  0  0  0  0  0  0  0  0  0
    4.2897   -2.9831    2.9357 H   0  0  0  0  0  0  0  0  0  0  0  0
    4.0930   -2.3417    1.3191 H   0  0  0  0  0  0  0  0  0  0  0  0
    2.3021   -4.2815    1.7783 H   0  0  0  0  0  0  0  0  0  0  0  0
    3.6292   -6.5889    2.0228 H   0  0  0  0  0  0  0  0  0  0  0  0
    4.6522   -4.6275    4.2260 H   0  0  0  0  0  0  0  0  0  0  0  0
    4.9776   -6.4298    4.1081 H   0  0  0  0  0  0  0  0  0  0  0  0
    6.0997   -6.1350    1.9059 H   0  0  0  0  0  0  0  0  0  0  0  0
    5.5066   -0.3667   -2.0776 H   0  0  0  0  0  0  0  0  0  0  0  0
  1  2  1  0
  1 20  1  0
  1 21  1  0
  1 22  1  0
  2 19  1  0
  2  3  1  0
  3  4  2  0
  3 23  1  0
  4 18  1  0
  4  5  1  0
  5 10  1  0
  5  6  1  0
  6  7  2  0
  6  8  1  0
  8 14  1  0
  8 24  1  6
  8  9  1  0
  9 12  1  0
  9 25  1  6
  9 10  1  0
 10 11  2  0
 12 17  1  0
 12 13  1  0
 12 26  1  6
 13 14  1  0
 13 27  1  0
 13 28  1  0
 14 15  1  0
 14 29  1  6
 15 17  1  0
 15 16  1  0
 15 30  1  6
 16 17  1  0
 16 31  1  0
 16 32  1  0
 17 33  1  6
 18 19  2  0
 18 34  1  0
M  END
>  <i_m_ct_stereo_status>  (207) 
1

>  <s_m_source_file>  (207) 
/var/tmp/pbs.5083858.sched01/tmpq77br8kz/85iinevzok.sdf

>  <i_m_source_file_index>  (207) 
1

>  <i_lp_mmshare_version>  (207) 
48012

>  <i_f3d_flags>  (207) 
0

>  <s_epik_input>  (207) 
W0NIM11uMVtjSF1jKFtjSF1uMSktbihjMltPSF0pYyhbT0hdKWMoYzIzKVtDQEBIXTRbQ0BASF01W0NAQEhdKFtDSDJdNSlbQ0BIXTNbQ0gyXTQ=

>  <s_epik_cmdline>  (207) 
J2VwaWtfcHl0aG9uJywgJy1waHQnLCAnMi4wJywgJy1waCcsICc3LjAnLCAnLXRuJywgJzgnLCAnLW1hJywgJzIwMCcsICctaW1hZScsICc8aW5maWxlLm1hZT4nLCAnLW9tYWUnLCAnPG91dGZpbGUubWFlPic=

>  <r_lp_tautomer_probability>  (207) 
1

>  <r_epik_Ionization_Penalty>  (207) 
6.97378e-06

>  <r_epik_Ionization_Penalty_Charging>  (207) 
0

>  <r_epik_Ionization_Penalty_Neutral>  (207) 
6.97378e-06

>  <r_epik_State_Penalty>  (207) 
-0

>  <r_epik_Charging_Adjusted_Penalty>  (207) 
0

>  <i_epik_Tot_Q>  (207) 
0

>  <i_epik_Tot_abs_Q>  (207) 
0

>  <s_lp_Force_Field>  (207) 
OPLS3e

>  <r_lp_Energy>  (207) 
50.6382

>  <b_lp_Chiralities_Consistent>  (207) 
1

>  <s_lp_Variant>  (207) 
58:0-2

>  <s_i_glide_gridfile>  (207) 
pfpi4k_grid

>  <i_i_glide_lignum>  (207) 
1

>  <i_i_glide_rotatable_bonds>  (207) 
1

>  <r_i_docking_score>  (207) 
-3.43911

>  <r_i_glide_ligand_efficiency>  (207) 
-0.181006

>  <r_i_glide_ligand_efficiency_sa>  (207) 
-0.482997

>  <r_i_glide_ligand_efficiency_ln>  (207) 
-0.871889

>  <r_i_glide_gscore>  (207) 
-3.43911

>  <r_i_glide_lipo>  (207) 
-0.218342

>  <r_i_glide_hbond>  (207) 
-0.0204178

>  <r_i_glide_metal>  (207) 
-0

>  <r_i_glide_rewards>  (207) 
-2.08572

>  <r_i_glide_evdw>  (207) 
-20.7934

>  <r_i_glide_ecoul>  (207) 
-2.14936

>  <r_i_glide_erotb>  (207) 
0.266519

>  <r_i_glide_esite>  (207) 
-0.0190813

>  <r_i_glide_emodel>  (207) 
-29.1175

>  <r_i_glide_energy>  (207) 
-22.9428

>  <r_i_glide_einternal>  (207) 
0.000923875

>  <r_i_glide_intrahb_reward>  (207) 
-0

>  <i_i_glide_confnum>  (207) 
4

>  <i_i_glide_posenum>  (207) 
3

>  <r_i_glide_eff_state_penalty>  (207) 
0

>  <ligand_id>  (207) 
58

>  <original_smiles>  (207) 
Cn1cc(-n2c(O)c3c(c2O)C2CC3C3CC23)cn1

>  <smiles>  (207) 
[H]c1nn(C([H])([H])[H])c([H])c1N1C(=O)C2([H])C([H])(C1=O)C1([H])C([H])([H])C2([H])C2([H])C([H])([H])C12[H]

$$$$
59:1:0
     RDKit          3D

100110  0  0  1  0  0  0  0  0999 V2000
    4.1756   -0.6288   -3.0324 C   0  0  0  0  0  0  0  0  0  0  0  0
    4.4689   -2.0811   -2.7277 C   0  0  2  0  0  0  0  0  0  0  0  0
    3.3156   -2.8822   -2.4596 O   0  0  0  0  0  0  0  0  0  0  0  0
    4.2309   -2.6900   -1.3680 C   0  0  1  0  0  0  0  0  0  0  0  0
    5.0267   -3.9225   -0.9776 C   0  0  0  0  0  0  0  0  0  0  0  0
    3.6811   -1.8532   -0.2018 C   0  0  2  0  0  0  0  0  0  0  0  0
    4.7005   -1.0670    0.6239 C   0  0  0  0  0  0  0  0  0  0  0  0
    3.8767   -0.7213    1.8448 C   0  0  1  0  0  0  0  0  0  0  0  0
    2.9754    0.5207    1.5834 C   0  0  0  0  0  0  0  0  0  0  0  0
    3.1252   -2.0610    2.0864 C   0  0  2  0  0  0  0  0  0  0  0  0
    2.9654   -2.6127    0.7688 O   0  0  0  0  0  0  0  0  0  0  0  0
    1.6861   -1.9944    2.7079 C   0  0  1  0  0  0  0  0  0  0  0  0
    1.5795   -3.3306    3.2220 O   0  0  0  0  0  0  0  0  0  0  0  0
    2.7510   -3.5256    4.0218 C   0  0  2  0  0  0  0  0  0  0  0  0
    2.8664   -5.0059    4.4577 C   0  0  0  0  0  0  0  0  0  0  0  0
    1.9738   -5.3311    5.4933 O   0  0  0  0  0  0  0  0  0  0  0  0
    2.6489   -2.5290    5.2473 C   0  0  1  0  0  0  0  0  0  0  0  0
    3.4726   -1.3757    5.0161 O   0  0  0  0  0  0  0  0  0  0  0  0
    2.5402   -0.3613    4.7013 C   0  0  2  0  0  0  0  0  0  0  0  0
    1.6622   -0.3862    5.9675 C   0  0  2  0  0  0  0  0  0  0  0  0
    0.6395    0.6703    5.9940 O   0  0  0  0  0  0  0  0  0  0  0  0
    0.6507    1.2184    7.2476 C   0  0  1  0  0  0  0  0  0  0  0  0
   -0.2607    2.3165    7.7439 C   0  0  0  0  0  0  0  0  0  0  0  0
    0.3930    2.5787    9.1902 C   0  0  0  0  0  0  0  0  0  0  0  0
    1.1612    1.3354    9.8833 C   0  0  1  0  0  0  0  0  0  0  0  0
    1.0501    1.4979   11.4162 C   0  0  0  0  0  0  0  0  0  0  0  0
    0.3484    0.1625    9.4397 C   0  0  0  0  0  0  0  0  0  0  0  0
   -0.1471   -0.6937   10.1728 O   0  0  0  0  0  0  0  0  0  0  0  0
    0.2288    0.1326    8.1074 O   0  0  0  0  0  0  0  0  0  0  0  0
    2.6261    0.8661    9.4519 C   0  0  0  0  0  0  0  0  0  0  0  0
    3.6798    0.8663   10.2761 C   0  0  0  0  0  0  0  0  0  0  0  0
    4.9749    0.4163    9.6489 C   0  0  0  0  0  0  0  0  0  0  0  0
    4.5545   -0.2078    8.3092 C   0  0  1  0  0  0  0  0  0  0  0  0
    4.5910   -1.7244    8.3780 C   0  0  0  0  0  0  0  0  0  0  0  0
    3.7881   -2.5222    9.3695 C   0  0  0  0  0  0  0  0  0  0  0  0
    4.1014   -3.8646    9.0305 O   0  0  0  0  0  0  0  0  0  0  0  0
    4.9695   -3.9283    8.0025 C   0  0  0  0  0  0  0  0  0  0  0  0
    5.4056   -4.9547    7.4912 O   0  0  0  0  0  0  0  0  0  0  0  0
    5.2867   -2.5607    7.5961 C   0  0  0  0  0  0  0  0  0  0  0  0
    3.1292    0.3563    8.0312 C   0  0  2  0  0  0  0  0  0  0  0  0
    3.1627    1.5847    7.1918 C   0  0  0  0  0  0  0  0  0  0  0  0
    1.8354    2.0247    7.2888 O   0  0  0  0  0  0  0  0  0  0  0  0
    2.3731   -0.6411    7.2551 O   0  0  0  0  0  0  0  0  0  0  0  0
    1.3250   -1.7434    5.2937 C   0  0  2  0  0  0  0  0  0  0  0  0
    0.0997   -2.5880    5.7341 C   0  0  0  0  0  0  0  0  0  0  0  0
   -1.2658   -1.9110    5.5400 C   0  0  0  0  0  0  0  0  0  0  0  0
    0.2288   -3.1047    7.1730 C   0  0  0  0  0  0  0  0  0  0  0  0
    1.3843   -1.0392    3.9193 C   0  0  2  0  0  0  0  0  0  0  0  0
    0.2985   -0.2167    3.5084 O   0  0  0  0  0  0  0  0  0  0  0  0
    3.8417   -3.1476    2.9423 C   0  0  1  0  0  0  0  0  0  0  0  0
    4.3777   -4.3493    2.1109 C   0  0  0  0  0  0  0  0  0  0  0  0
    5.0498   -2.7118    3.5142 O   0  0  0  0  0  0  0  0  0  0  0  0
    5.0386   -0.0229   -2.7406 H   0  0  0  0  0  0  0  0  0  0  0  0
    3.3136   -0.2726   -2.4573 H   0  0  0  0  0  0  0  0  0  0  0  0
    3.9832   -0.5049   -4.1076 H   0  0  0  0  0  0  0  0  0  0  0  0
    5.2442   -2.5466   -3.3315 H   0  0  0  0  0  0  0  0  0  0  0  0
    5.9104   -3.6355   -0.4000 H   0  0  0  0  0  0  0  0  0  0  0  0
    5.3687   -4.4487   -1.8721 H   0  0  0  0  0  0  0  0  0  0  0  0
    4.4350   -4.5703   -0.3269 H   0  0  0  0  0  0  0  0  0  0  0  0
    3.0102   -1.1224   -0.6486 H   0  0  0  0  0  0  0  0  0  0  0  0
    5.5553   -1.6856    0.8898 H   0  0  0  0  0  0  0  0  0  0  0  0
    5.0882   -0.2054    0.0874 H   0  0  0  0  0  0  0  0  0  0  0  0
    4.5210   -0.4560    2.6713 H   0  0  0  0  0  0  0  0  0  0  0  0
    2.1995    0.3313    0.8263 H   0  0  0  0  0  0  0  0  0  0  0  0
    3.5973    1.3483    1.2075 H   0  0  0  0  0  0  0  0  0  0  0  0
    2.4908    0.9190    2.4826 H   0  0  0  0  0  0  0  0  0  0  0  0
    0.9426   -1.8636    1.9154 H   0  0  0  0  0  0  0  0  0  0  0  0
    2.6779   -5.6775    3.6167 H   0  0  0  0  0  0  0  0  0  0  0  0
    3.8788   -5.2057    4.8087 H   0  0  0  0  0  0  0  0  0  0  0  0
    1.1016   -5.2189    5.1434 H   0  0  0  0  0  0  0  0  0  0  0  0
    2.9469   -2.9871    6.1889 H   0  0  0  0  0  0  0  0  0  0  0  0
    2.9176    0.6065    4.3685 H   0  0  0  0  0  0  0  0  0  0  0  0
   -0.2105    3.2000    7.1062 H   0  0  0  0  0  0  0  0  0  0  0  0
   -1.2898    1.9602    7.7988 H   0  0  0  0  0  0  0  0  0  0  0  0
    1.0877    3.4173    9.1410 H   0  0  0  0  0  0  0  0  0  0  0  0
   -0.4072    2.9214    9.8464 H   0  0  0  0  0  0  0  0  0  0  0  0
    1.4230    0.6247   11.9531 H   0  0  0  0  0  0  0  0  0  0  0  0
    0.0188    1.6379   11.7386 H   0  0  0  0  0  0  0  0  0  0  0  0
    1.6100    2.3632   11.7563 H   0  0  0  0  0  0  0  0  0  0  0  0
    3.6543    1.1897   11.3043 H   0  0  0  0  0  0  0  0  0  0  0  0
    5.6018    1.2916    9.4941 H   0  0  0  0  0  0  0  0  0  0  0  0
    5.5140   -0.2745   10.2964 H   0  0  0  0  0  0  0  0  0  0  0  0
    5.2394    0.0878    7.5207 H   0  0  0  0  0  0  0  0  0  0  0  0
    2.7198   -2.3326    9.2671 H   0  0  0  0  0  0  0  0  0  0  0  0
    4.0849   -2.2984   10.3941 H   0  0  0  0  0  0  0  0  0  0  0  0
    5.9372   -2.3037    6.7819 H   0  0  0  0  0  0  0  0  0  0  0  0
    3.7956    2.3569    7.6302 H   0  0  0  0  0  0  0  0  0  0  0  0
    3.5257    1.4659    6.1794 H   0  0  0  0  0  0  0  0  0  0  0  0
    0.0751   -3.4616    5.0980 H   0  0  0  0  0  0  0  0  0  0  0  0
   -1.3445   -0.9713    6.0826 H   0  0  0  0  0  0  0  0  0  0  0  0
   -2.0580   -2.5669    5.8932 H   0  0  0  0  0  0  0  0  0  0  0  0
   -1.4718   -1.7166    4.4892 H   0  0  0  0  0  0  0  0  0  0  0  0
    0.1813   -2.3026    7.9014 H   0  0  0  0  0  0  0  0  0  0  0  0
    1.1653   -3.6377    7.3471 H   0  0  0  0  0  0  0  0  0  0  0  0
   -0.5814   -3.7949    7.4003 H   0  0  0  0  0  0  0  0  0  0  0  0
    0.5989    0.2946    2.7673 H   0  0  0  0  0  0  0  0  0  0  0  0
    3.5618   -4.8337    1.5709 H   0  0  0  0  0  0  0  0  0  0  0  0
    4.8363   -5.1191    2.7479 H   0  0  0  0  0  0  0  0  0  0  0  0
    5.0863   -4.0235    1.3586 H   0  0  0  0  0  0  0  0  0  0  0  0
    4.8926   -1.9037    3.9899 H   0  0  0  0  0  0  0  0  0  0  0  0
  1  2  1  0
  1 53  1  0
  1 54  1  0
  1 55  1  0
  2  4  1  0
  2  3  1  0
  2 56  1  6
  3  4  1  0
  4  5  1  1
  4  6  1  0
  5 57  1  0
  5 58  1  0
  5 59  1  0
  6 11  1  0
  6  7  1  0
  6 60  1  6
  7  8  1  0
  7 61  1  0
  7 62  1  0
  8  9  1  0
  8 10  1  0
  8 63  1  1
  9 64  1  0
  9 65  1  0
  9 66  1  0
 10 50  1  0
 10 11  1  6
 10 12  1  0
 12 48  1  0
 12 13  1  0
 12 67  1  6
 13 14  1  0
 14 15  1  1
 14 17  1  0
 14 50  1  0
 15 16  1  0
 15 68  1  0
 15 69  1  0
 16 70  1  0
 17 44  1  0
 17 18  1  0
 17 71  1  1
 18 19  1  0
 19 48  1  0
 19 20  1  0
 19 72  1  6
 20 43  1  1
 20 21  1  0
 20 44  1  0
 22 21  1  6
 22 29  1  0
 22 42  1  0
 22 23  1  0
 23 24  1  0
 23 73  1  0
 23 74  1  0
 24 25  1  0
 24 75  1  0
 24 76  1  0
 25 26  1  1
 25 27  1  0
 25 30  1  0
 26 77  1  0
 26 78  1  0
 26 79  1  0
 27 28  2  0
 27 29  1  0
 30 40  1  0
 30 31  2  0
 31 32  1  0
 31 80  1  0
 32 33  1  0
 32 81  1  0
 32 82  1  0
 33 40  1  0
 33 83  1  6
 33 34  1  0
 34 39  2  0
 34 35  1  0
 35 36  1  0
 35 84  1  0
 35 85  1  0
 36 37  1  0
 37 39  1  0
 37 38  2  0
 39 86  1  0
 40 41  1  0
 40 43  1  6
 41 42  1  0
 41 87  1  0
 41 88  1  0
 44 45  1  1
 44 48  1  0
 45 46  1  0
 45 47  1  0
 45 89  1  0
 46 90  1  0
 46 91  1  0
 46 92  1  0
 47 93  1  0
 47 94  1  0
 47 95  1  0
 48 49  1  6
 49 96  1  0
 50 51  1  0
 50 52  1  1
 51 97  1  0
 51 98  1  0
 51 99  1  0
 52100  1  0
M  END
>  <i_m_ct_stereo_status>  (208) 
1

>  <s_m_source_file>  (208) 
/var/tmp/pbs.5083858.sched01/tmpq77br8kz/85iinevzok.sdf

>  <i_m_source_file_index>  (208) 
3

>  <i_lp_mmshare_version>  (208) 
48012

>  <i_f3d_flags>  (208) 
0

>  <s_epik_input>  (208) 
W0NIM11bQ0BIXShPMSlbQ0BAXTEoW0NIM10pW0NAQEhdKE8yKVtDSDJdW0NAQEhdKFtDSDNdKVtDQEBdMjNbQ0BASF00W0NAXTUoW09IXSlbQ0BIXTZbQ0BdNyhbQ0BdNShbQ0hdKFtDSDNdKVtDSDNdKVtDQEhdKE82KVtDQF0oTzQpKFtDSDJdW09IXSlbQ0BdMyhbQ0gzXSlbT0hdKU9DODlbQ0gyXVtDSDJdW0NAQF0oW0NIM10pKEMoPU8pTzgpQz0xW0NAQF0oTzcpKFtDSDJdTzkpW0NAQEhdKFtDSDJdW0NIXTEpYzFbY0hdb2MoW09IXSlbY0hdMQ==

>  <s_epik_cmdline>  (208) 
J2VwaWtfcHl0aG9uJywgJy1waHQnLCAnMi4wJywgJy1waCcsICc3LjAnLCAnLXRuJywgJzgnLCAnLW1hJywgJzIwMCcsICctaW1hZScsICc8aW5maWxlLm1hZT4nLCAnLW9tYWUnLCAnPG91dGZpbGUubWFlPic=

>  <r_lp_tautomer_probability>  (208) 
1

>  <r_epik_Ionization_Penalty>  (208) 
4.6542e-06

>  <r_epik_Ionization_Penalty_Charging>  (208) 
0

>  <r_epik_Ionization_Penalty_Neutral>  (208) 
4.6542e-06

>  <r_epik_State_Penalty>  (208) 
-0

>  <r_epik_Charging_Adjusted_Penalty>  (208) 
0

>  <i_epik_Tot_Q>  (208) 
0

>  <i_epik_Tot_abs_Q>  (208) 
0

>  <s_epik_Chemistry_Notes>  (208) 
This compound has an ester and may undergo hydrolysis at high or low pH.

>  <s_lp_Force_Field>  (208) 
OPLS3e

>  <r_lp_Energy>  (208) 
168.752

>  <b_lp_Chiralities_Consistent>  (208) 
1

>  <s_lp_Variant>  (208) 
59:0-2

>  <s_i_glide_gridfile>  (208) 
pfpi4k_grid

>  <i_i_glide_lignum>  (208) 
3

>  <i_i_glide_rotatable_bonds>  (208) 
7

>  <r_i_docking_score>  (208) 
-2.07075

>  <r_i_glide_ligand_efficiency>  (208) 
-0.0398222

>  <r_i_glide_ligand_efficiency_sa>  (208) 
-0.148637

>  <r_i_glide_ligand_efficiency_ln>  (208) 
-0.418229

>  <r_i_glide_gscore>  (208) 
-2.07075

>  <r_i_glide_lipo>  (208) 
-0.450493

>  <r_i_glide_hbond>  (208) 
-7.45997e-05

>  <r_i_glide_metal>  (208) 
-0

>  <r_i_glide_rewards>  (208) 
-0.5

>  <r_i_glide_evdw>  (208) 
-27.2945

>  <r_i_glide_ecoul>  (208) 
1.0287

>  <r_i_glide_erotb>  (208) 
0.121689

>  <r_i_glide_esite>  (208) 
-0.0314549

>  <r_i_glide_emodel>  (208) 
-32.8609

>  <r_i_glide_energy>  (208) 
-26.2658

>  <r_i_glide_einternal>  (208) 
1.74826

>  <r_i_glide_intrahb_reward>  (208) 
-0.5

>  <i_i_glide_confnum>  (208) 
1

>  <i_i_glide_posenum>  (208) 
20

>  <r_i_glide_eff_state_penalty>  (208) 
0

>  <ligand_id>  (208) 
59

>  <original_smiles>  (208) 
CC1OC1(C)C1CC(C)C2(O1)C1OC(CO)(C3OC4C5(OC67CCC(C)(C(=O)O6)C6=CCC(c8coc(O)c8)C6(CO7)O5)C3(C(C)C)C41O)C2(C)O

>  <smiles>  (208) 
[H]OC([H])([H])C12OC([H])(C3(OC([H])(C4(C([H])([H])[H])OC4([H])C([H])([H])[H])C([H])([H])C3([H])C([H])([H])[H])C1(O[H])C([H])([H])[H])C1(O[H])C3([H])OC2([H])C1(C([H])(C([H])([H])[H])C([H])([H])[H])C31OC23OC(=O)C(C([H])([H])[H])(C4=C([H])C([H])([H])C([H])(C5=C([H])C(=O)OC5([H])[H])C4(O1)C([H])([H])O2)C([H])([H])C3([H])[H]

$$$$
59:1:1
     RDKit          3D

100110  0  0  1  0  0  0  0  0999 V2000
    4.1558   -0.5893   -3.0477 C   0  0  0  0  0  0  0  0  0  0  0  0
    4.4790   -2.0343   -2.7535 C   0  0  2  0  0  0  0  0  0  0  0  0
    3.3386   -2.8508   -2.4813 O   0  0  0  0  0  0  0  0  0  0  0  0
    4.2553   -2.6452   -1.3932 C   0  0  1  0  0  0  0  0  0  0  0  0
    5.0717   -3.8636   -1.0113 C   0  0  0  0  0  0  0  0  0  0  0  0
    3.6945   -1.8208   -0.2188 C   0  0  2  0  0  0  0  0  0  0  0  0
    4.7038   -1.0228    0.6101 C   0  0  0  0  0  0  0  0  0  0  0  0
    3.8758   -0.7006    1.8349 C   0  0  1  0  0  0  0  0  0  0  0  0
    2.9520    0.5251    1.5864 C   0  0  0  0  0  0  0  0  0  0  0  0
    3.1433   -2.0489    2.0681 C   0  0  2  0  0  0  0  0  0  0  0  0
    2.9914   -2.5958    0.7488 O   0  0  0  0  0  0  0  0  0  0  0  0
    1.7034   -2.0026    2.6896 C   0  0  1  0  0  0  0  0  0  0  0  0
    1.6187   -3.3431    3.1977 O   0  0  0  0  0  0  0  0  0  0  0  0
    2.7929   -3.5236    3.9966 C   0  0  2  0  0  0  0  0  0  0  0  0
    2.9211   -5.0064    4.4193 C   0  0  0  0  0  0  0  0  0  0  0  0
    2.0349   -5.3509    5.4554 O   0  0  0  0  0  0  0  0  0  0  0  0
    2.6686   -2.5402    5.2271 C   0  0  1  0  0  0  0  0  0  0  0  0
    3.4753   -1.3768    5.0078 O   0  0  0  0  0  0  0  0  0  0  0  0
    2.5325   -0.3725    4.6951 C   0  0  2  0  0  0  0  0  0  0  0  0
    1.6512   -0.4137    5.9585 C   0  0  2  0  0  0  0  0  0  0  0  0
    0.6173    0.6326    5.9909 O   0  0  0  0  0  0  0  0  0  0  0  0
    0.6235    1.1722    7.2477 C   0  0  1  0  0  0  0  0  0  0  0  0
   -0.2999    2.2550    7.7509 C   0  0  0  0  0  0  0  0  0  0  0  0
    0.3514    2.5164    9.1979 C   0  0  0  0  0  0  0  0  0  0  0  0
    1.1356    1.2792    9.8831 C   0  0  1  0  0  0  0  0  0  0  0  0
    1.0220    1.4310   11.4167 C   0  0  0  0  0  0  0  0  0  0  0  0
    0.3376    0.0998    9.4329 C   0  0  0  0  0  0  0  0  0  0  0  0
   -0.1490   -0.7660   10.1625 O   0  0  0  0  0  0  0  0  0  0  0  0
    0.2160    0.0744    8.0995 O   0  0  0  0  0  0  0  0  0  0  0  0
    2.6050    0.8306    9.4493 C   0  0  0  0  0  0  0  0  0  0  0  0
    3.6601    0.8393   10.2722 C   0  0  0  0  0  0  0  0  0  0  0  0
    4.9597    0.4083    9.6425 C   0  0  0  0  0  0  0  0  0  0  0  0
    4.5472   -0.2134    8.2992 C   0  0  1  0  0  0  0  0  0  0  0  0
    4.6029   -1.7292    8.3586 C   0  0  0  0  0  0  0  0  0  0  0  0
    3.8070   -2.5433    9.3441 C   0  0  0  0  0  0  0  0  0  0  0  0
    4.1378   -3.8799    8.9973 O   0  0  0  0  0  0  0  0  0  0  0  0
    5.0097   -3.9261    7.9711 C   0  0  0  0  0  0  0  0  0  0  0  0
    5.4621   -4.9446    7.4564 O   0  0  0  0  0  0  0  0  0  0  0  0
    5.3099   -2.5525    7.5735 C   0  0  0  0  0  0  0  0  0  0  0  0
    3.1150    0.3345    8.0248 C   0  0  2  0  0  0  0  0  0  0  0  0
    3.1325    1.5678    7.1928 C   0  0  0  0  0  0  0  0  0  0  0  0
    1.7994    1.9917    7.2928 O   0  0  0  0  0  0  0  0  0  0  0  0
    2.3666   -0.6654    7.2446 O   0  0  0  0  0  0  0  0  0  0  0  0
    1.3328   -1.7718    5.2767 C   0  0  2  0  0  0  0  0  0  0  0  0
    0.1195   -2.6335    5.7116 C   0  0  0  0  0  0  0  0  0  0  0  0
   -1.2521   -1.9690    5.5303 C   0  0  0  0  0  0  0  0  0  0  0  0
    0.2597   -3.1625    7.1448 C   0  0  0  0  0  0  0  0  0  0  0  0
    1.3857   -1.0581    3.9068 C   0  0  2  0  0  0  0  0  0  0  0  0
    0.2882   -0.2503    3.4977 O   0  0  0  0  0  0  0  0  0  0  0  0
    3.8786   -3.1265    2.9148 C   0  0  1  0  0  0  0  0  0  0  0  0
    4.4152   -4.3227    2.0751 C   0  0  0  0  0  0  0  0  0  0  0  0
    5.0938   -2.6735    3.4539 O   0  0  0  0  0  0  0  0  0  0  0  0
    4.9982    0.0392   -2.7389 H   0  0  0  0  0  0  0  0  0  0  0  0
    3.2734   -0.2770   -2.4772 H   0  0  0  0  0  0  0  0  0  0  0  0
    3.9627   -0.4555   -4.1221 H   0  0  0  0  0  0  0  0  0  0  0  0
    5.2585   -2.4858   -3.3635 H   0  0  0  0  0  0  0  0  0  0  0  0
    5.9518   -3.5614   -0.4356 H   0  0  0  0  0  0  0  0  0  0  0  0
    5.4192   -4.3782   -1.9098 H   0  0  0  0  0  0  0  0  0  0  0  0
    4.4886   -4.5251   -0.3671 H   0  0  0  0  0  0  0  0  0  0  0  0
    3.0078   -1.0972   -0.6547 H   0  0  0  0  0  0  0  0  0  0  0  0
    5.5686   -1.6310    0.8615 H   0  0  0  0  0  0  0  0  0  0  0  0
    5.0756   -0.1512    0.0772 H   0  0  0  0  0  0  0  0  0  0  0  0
    4.5093   -0.4307    2.6678 H   0  0  0  0  0  0  0  0  0  0  0  0
    2.1833    0.3397    0.8198 H   0  0  0  0  0  0  0  0  0  0  0  0
    3.5790    1.3409    1.2400 H   0  0  0  0  0  0  0  0  0  0  0  0
    2.4633    0.9215    2.4849 H   0  0  0  0  0  0  0  0  0  0  0  0
    0.9571   -1.8782    1.8956 H   0  0  0  0  0  0  0  0  0  0  0  0
    2.7349   -5.6743    3.5743 H   0  0  0  0  0  0  0  0  0  0  0  0
    3.9352   -5.2000    4.7666 H   0  0  0  0  0  0  0  0  0  0  0  0
    1.1590   -5.2376    5.1135 H   0  0  0  0  0  0  0  0  0  0  0  0
    2.9720   -3.0003    6.1654 H   0  0  0  0  0  0  0  0  0  0  0  0
    2.8987    0.6014    4.3693 H   0  0  0  0  0  0  0  0  0  0  0  0
   -0.2599    3.1413    7.1182 H   0  0  0  0  0  0  0  0  0  0  0  0
   -1.3235    1.8853    7.8031 H   0  0  0  0  0  0  0  0  0  0  0  0
    1.0354    3.3634    9.1533 H   0  0  0  0  0  0  0  0  0  0  0  0
   -0.4524    2.8452    9.8559 H   0  0  0  0  0  0  0  0  0  0  0  0
    1.4051    0.5592   11.9496 H   0  0  0  0  0  0  0  0  0  0  0  0
   -0.0103    1.5566   11.7411 H   0  0  0  0  0  0  0  0  0  0  0  0
    1.5715    2.3006   11.7628 H   0  0  0  0  0  0  0  0  0  0  0  0
    3.6305    1.1556   11.3033 H   0  0  0  0  0  0  0  0  0  0  0  0
    5.5758    1.2919    9.4928 H   0  0  0  0  0  0  0  0  0  0  0  0
    5.5080   -0.2794   10.2859 H   0  0  0  0  0  0  0  0  0  0  0  0
    5.2276    0.0954    7.5122 H   0  0  0  0  0  0  0  0  0  0  0  0
    2.7362   -2.3666    9.2383 H   0  0  0  0  0  0  0  0  0  0  0  0
    4.0978   -2.3218   10.3714 H   0  0  0  0  0  0  0  0  0  0  0  0
    5.9572   -2.2813    6.7603 H   0  0  0  0  0  0  0  0  0  0  0  0
    3.7559    2.3459    7.6349 H   0  0  0  0  0  0  0  0  0  0  0  0
    3.4968    1.4598    6.1796 H   0  0  0  0  0  0  0  0  0  0  0  0
    0.1037   -3.5002    5.0666 H   0  0  0  0  0  0  0  0  0  0  0  0
   -1.3385   -1.0355    6.0818 H   0  0  0  0  0  0  0  0  0  0  0  0
   -2.0363   -2.6363    5.8802 H   0  0  0  0  0  0  0  0  0  0  0  0
   -1.4628   -1.7653    4.4826 H   0  0  0  0  0  0  0  0  0  0  0  0
    0.2079   -2.3679    7.8813 H   0  0  0  0  0  0  0  0  0  0  0  0
    1.2020   -3.6875    7.3107 H   0  0  0  0  0  0  0  0  0  0  0  0
   -0.5421   -3.8640    7.3688 H   0  0  0  0  0  0  0  0  0  0  0  0
    0.5816    0.2677    2.7575 H   0  0  0  0  0  0  0  0  0  0  0  0
    3.6017   -4.8124    1.5328 H   0  0  0  0  0  0  0  0  0  0  0  0
    4.8846   -5.0921    2.7072 H   0  0  0  0  0  0  0  0  0  0  0  0
    5.1220   -3.9952    1.3219 H   0  0  0  0  0  0  0  0  0  0  0  0
    5.6308   -2.3974    2.7239 H   0  0  0  0  0  0  0  0  0  0  0  0
  1  2  1  0
  1 53  1  0
  1 54  1  0
  1 55  1  0
  2  4  1  0
  2  3  1  0
  2 56  1  6
  3  4  1  0
  4  5  1  1
  4  6  1  0
  5 57  1  0
  5 58  1  0
  5 59  1  0
  6 11  1  0
  6  7  1  0
  6 60  1  6
  7  8  1  0
  7 61  1  0
  7 62  1  0
  8  9  1  0
  8 10  1  0
  8 63  1  1
  9 64  1  0
  9 65  1  0
  9 66  1  0
 10 50  1  0
 10 11  1  6
 10 12  1  0
 12 48  1  0
 12 13  1  0
 12 67  1  6
 13 14  1  0
 14 15  1  1
 14 17  1  0
 14 50  1  0
 15 16  1  0
 15 68  1  0
 15 69  1  0
 16 70  1  0
 17 44  1  0
 17 18  1  0
 17 71  1  1
 18 19  1  0
 19 48  1  0
 19 20  1  0
 19 72  1  6
 20 43  1  1
 20 21  1  0
 20 44  1  0
 22 21  1  6
 22 29  1  0
 22 42  1  0
 22 23  1  0
 23 24  1  0
 23 73  1  0
 23 74  1  0
 24 25  1  0
 24 75  1  0
 24 76  1  0
 25 26  1  1
 25 27  1  0
 25 30  1  0
 26 77  1  0
 26 78  1  0
 26 79  1  0
 27 28  2  0
 27 29  1  0
 30 40  1  0
 30 31  2  0
 31 32  1  0
 31 80  1  0
 32 33  1  0
 32 81  1  0
 32 82  1  0
 33 40  1  0
 33 83  1  6
 33 34  1  0
 34 39  2  0
 34 35  1  0
 35 36  1  0
 35 84  1  0
 35 85  1  0
 36 37  1  0
 37 39  1  0
 37 38  2  0
 39 86  1  0
 40 41  1  0
 40 43  1  6
 41 42  1  0
 41 87  1  0
 41 88  1  0
 44 45  1  1
 44 48  1  0
 45 46  1  0
 45 47  1  0
 45 89  1  0
 46 90  1  0
 46 91  1  0
 46 92  1  0
 47 93  1  0
 47 94  1  0
 47 95  1  0
 48 49  1  6
 49 96  1  0
 50 51  1  0
 50 52  1  1
 51 97  1  0
 51 98  1  0
 51 99  1  0
 52100  1  0
M  END
>  <i_m_ct_stereo_status>  (209) 
1

>  <s_m_source_file>  (209) 
/var/tmp/pbs.5083858.sched01/tmpq77br8kz/85iinevzok.sdf

>  <i_m_source_file_index>  (209) 
3

>  <i_lp_mmshare_version>  (209) 
48012

>  <i_f3d_flags>  (209) 
0

>  <s_epik_input>  (209) 
W0NIM11bQ0BIXShPMSlbQ0BAXTEoW0NIM10pW0NAQEhdKE8yKVtDSDJdW0NAQEhdKFtDSDNdKVtDQEBdMjNbQ0BASF00W0NAXTUoW09IXSlbQ0BIXTZbQ0BdNyhbQ0BdNShbQ0hdKFtDSDNdKVtDSDNdKVtDQEhdKE82KVtDQF0oTzQpKFtDSDJdW09IXSlbQ0BdMyhbQ0gzXSlbT0hdKU9DODlbQ0gyXVtDSDJdW0NAQF0oW0NIM10pKEMoPU8pTzgpQz0xW0NAQF0oTzcpKFtDSDJdTzkpW0NAQEhdKFtDSDJdW0NIXTEpYzFbY0hdb2MoW09IXSlbY0hdMQ==

>  <s_epik_cmdline>  (209) 
J2VwaWtfcHl0aG9uJywgJy1waHQnLCAnMi4wJywgJy1waCcsICc3LjAnLCAnLXRuJywgJzgnLCAnLW1hJywgJzIwMCcsICctaW1hZScsICc8aW5maWxlLm1hZT4nLCAnLW9tYWUnLCAnPG91dGZpbGUubWFlPic=

>  <r_lp_tautomer_probability>  (209) 
1

>  <r_epik_Ionization_Penalty>  (209) 
4.6542e-06

>  <r_epik_Ionization_Penalty_Charging>  (209) 
0

>  <r_epik_Ionization_Penalty_Neutral>  (209) 
4.6542e-06

>  <r_epik_State_Penalty>  (209) 
-0

>  <r_epik_Charging_Adjusted_Penalty>  (209) 
0

>  <i_epik_Tot_Q>  (209) 
0

>  <i_epik_Tot_abs_Q>  (209) 
0

>  <s_epik_Chemistry_Notes>  (209) 
This compound has an ester and may undergo hydrolysis at high or low pH.

>  <s_lp_Force_Field>  (209) 
OPLS3e

>  <r_lp_Energy>  (209) 
168.752

>  <b_lp_Chiralities_Consistent>  (209) 
1

>  <s_lp_Variant>  (209) 
59:0-2

>  <s_i_glide_gridfile>  (209) 
pfpi4k_grid

>  <i_i_glide_lignum>  (209) 
3

>  <i_i_glide_rotatable_bonds>  (209) 
7

>  <r_i_docking_score>  (209) 
-1.62586

>  <r_i_glide_ligand_efficiency>  (209) 
-0.0312665

>  <r_i_glide_ligand_efficiency_sa>  (209) 
-0.116703

>  <r_i_glide_ligand_efficiency_ln>  (209) 
-0.328374

>  <r_i_glide_gscore>  (209) 
-1.62586

>  <r_i_glide_lipo>  (209) 
-0.465979

>  <r_i_glide_hbond>  (209) 
-0.00879425

>  <r_i_glide_metal>  (209) 
-0

>  <r_i_glide_rewards>  (209) 
0

>  <r_i_glide_evdw>  (209) 
-27.4174

>  <r_i_glide_ecoul>  (209) 
0.878395

>  <r_i_glide_erotb>  (209) 
0.121689

>  <r_i_glide_esite>  (209) 
-0.0336668

>  <r_i_glide_emodel>  (209) 
-26.8578

>  <r_i_glide_energy>  (209) 
-26.539

>  <r_i_glide_einternal>  (209) 
1.76977

>  <r_i_glide_intrahb_reward>  (209) 
-0

>  <i_i_glide_confnum>  (209) 
1

>  <i_i_glide_posenum>  (209) 
15

>  <r_i_glide_eff_state_penalty>  (209) 
0

>  <ligand_id>  (209) 
59

>  <original_smiles>  (209) 
CC1OC1(C)C1CC(C)C2(O1)C1OC(CO)(C3OC4C5(OC67CCC(C)(C(=O)O6)C6=CCC(c8coc(O)c8)C6(CO7)O5)C3(C(C)C)C41O)C2(C)O

>  <smiles>  (209) 
[H]OC([H])([H])C12OC([H])(C3(OC([H])(C4(C([H])([H])[H])OC4([H])C([H])([H])[H])C([H])([H])C3([H])C([H])([H])[H])C1(O[H])C([H])([H])[H])C1(O[H])C3([H])OC2([H])C1(C([H])(C([H])([H])[H])C([H])([H])[H])C31OC23OC(=O)C(C([H])([H])[H])(C4=C([H])C([H])([H])C([H])(C5=C([H])C(=O)OC5([H])[H])C4(O1)C([H])([H])O2)C([H])([H])C3([H])[H]

$$$$
59:1:2
     RDKit          3D

100110  0  0  1  0  0  0  0  0999 V2000
    3.5609   -0.7617   -2.9377 C   0  0  0  0  0  0  0  0  0  0  0  0
    4.4323   -1.9016   -2.4529 C   0  0  2  0  0  0  0  0  0  0  0  0
    3.7347   -3.0209   -1.8997 O   0  0  0  0  0  0  0  0  0  0  0  0
    4.5725   -2.2849   -0.9964 C   0  0  1  0  0  0  0  0  0  0  0  0
    5.8214   -3.0379   -0.5639 C   0  0  0  0  0  0  0  0  0  0  0  0
    3.8020   -1.5281    0.1039 C   0  0  2  0  0  0  0  0  0  0  0  0
    4.5581   -0.4051    0.8186 C   0  0  0  0  0  0  0  0  0  0  0  0
    3.6585   -0.1990    2.0307 C   0  0  1  0  0  0  0  0  0  0  0  0
    2.4419    0.6972    1.6820 C   0  0  0  0  0  0  0  0  0  0  0  0
    3.3171   -1.6748    2.4058 C   0  0  2  0  0  0  0  0  0  0  0  0
    3.3344   -2.3675    1.1517 O   0  0  0  0  0  0  0  0  0  0  0  0
    1.9358   -1.9702    3.0594 C   0  0  1  0  0  0  0  0  0  0  0  0
    2.2296   -3.2053    3.7081 O   0  0  0  0  0  0  0  0  0  0  0  0
    3.4117   -2.9760    4.4762 C   0  0  2  0  0  0  0  0  0  0  0  0
    3.9529   -4.3116    5.0423 C   0  0  0  0  0  0  0  0  0  0  0  0
    3.2034   -4.7589    6.1461 O   0  0  0  0  0  0  0  0  0  0  0  0
    3.0217   -1.9437    5.6050 C   0  0  1  0  0  0  0  0  0  0  0  0
    3.4815   -0.6369    5.2616 O   0  0  0  0  0  0  0  0  0  0  0  0
    2.2992    0.0360    4.8929 C   0  0  2  0  0  0  0  0  0  0  0  0
    1.4569   -0.1075    6.1684 C   0  0  2  0  0  0  0  0  0  0  0  0
    0.1720    0.6076    6.1171 O   0  0  0  0  0  0  0  0  0  0  0  0
    0.0471    1.2589    7.3189 C   0  0  1  0  0  0  0  0  0  0  0  0
   -1.1455    2.0900    7.7441 C   0  0  0  0  0  0  0  0  0  0  0  0
   -0.5921    2.6676    9.1354 C   0  0  0  0  0  0  0  0  0  0  0  0
    0.5079    1.7679    9.9167 C   0  0  1  0  0  0  0  0  0  0  0  0
    0.3563    2.0426   11.4313 C   0  0  0  0  0  0  0  0  0  0  0  0
    0.0715    0.3797    9.5988 C   0  0  0  0  0  0  0  0  0  0  0  0
   -0.1551   -0.4962   10.4356 O   0  0  0  0  0  0  0  0  0  0  0  0
   -0.0417    0.1909    8.2917 O   0  0  0  0  0  0  0  0  0  0  0  0
    2.0451    1.7089    9.4805 C   0  0  0  0  0  0  0  0  0  0  0  0
    3.0592    2.0864   10.2726 C   0  0  0  0  0  0  0  0  0  0  0  0
    4.4227    1.9645    9.6505 C   0  0  0  0  0  0  0  0  0  0  0  0
    4.1936    1.1176    8.3854 C   0  0  1  0  0  0  0  0  0  0  0  0
    4.6748   -0.3226    8.5930 C   0  0  0  0  0  0  0  0  0  0  0  0
    4.1147   -1.2131    9.6722 C   0  0  0  0  0  0  0  0  0  0  0  0
    4.8095   -2.4329    9.4508 O   0  0  0  0  0  0  0  0  0  0  0  0
    5.6730   -2.3431    8.4158 C   0  0  0  0  0  0  0  0  0  0  0  0
    6.3929   -3.2414    7.9958 O   0  0  0  0  0  0  0  0  0  0  0  0
    5.5787   -0.9812    7.8842 C   0  0  0  0  0  0  0  0  0  0  0  0
    2.6633    1.2207    8.1027 C   0  0  2  0  0  0  0  0  0  0  0  0
    2.3406    2.3208    7.1503 C   0  0  0  0  0  0  0  0  0  0  0  0
    0.9444    2.3692    7.2473 O   0  0  0  0  0  0  0  0  0  0  0  0
    2.2292   -0.0243    7.4459 O   0  0  0  0  0  0  0  0  0  0  0  0
    1.5261   -1.5605    5.6250 C   0  0  2  0  0  0  0  0  0  0  0  0
    0.6045   -2.6814    6.1828 C   0  0  0  0  0  0  0  0  0  0  0  0
   -0.8971   -2.4760    5.9292 C   0  0  0  0  0  0  0  0  0  0  0  0
    0.8522   -2.9688    7.6697 C   0  0  0  0  0  0  0  0  0  0  0  0
    1.3835   -1.0192    4.1841 C   0  0  2  0  0  0  0  0  0  0  0  0
    0.1055   -0.5791    3.7380 O   0  0  0  0  0  0  0  0  0  0  0  0
    4.3296   -2.4179    3.3365 C   0  0  1  0  0  0  0  0  0  0  0  0
    5.1919   -3.4760    2.6097 C   0  0  0  0  0  0  0  0  0  0  0  0
    5.3502   -1.5607    3.7826 O   0  0  0  0  0  0  0  0  0  0  0  0
    4.1371    0.1655   -2.8756 H   0  0  0  0  0  0  0  0  0  0  0  0
    2.6608   -0.6669   -2.3214 H   0  0  0  0  0  0  0  0  0  0  0  0
    3.2539   -0.9461   -3.9714 H   0  0  0  0  0  0  0  0  0  0  0  0
    5.2835   -2.1579   -3.0908 H   0  0  0  0  0  0  0  0  0  0  0  0
    6.5306   -2.3547   -0.0911 H   0  0  0  0  0  0  0  0  0  0  0  0
    6.3309   -3.4872   -1.4256 H   0  0  0  0  0  0  0  0  0  0  0  0
    5.5506   -3.8164    0.1428 H   0  0  0  0  0  0  0  0  0  0  0  0
    2.9307   -1.0783   -0.3574 H   0  0  0  0  0  0  0  0  0  0  0  0
    5.5595   -0.7172    1.1161 H   0  0  0  0  0  0  0  0  0  0  0  0
    4.6567    0.4893    0.2145 H   0  0  0  0  0  0  0  0  0  0  0  0
    4.2078    0.3225    2.8116 H   0  0  0  0  0  0  0  0  0  0  0  0
    1.7627    0.2101    0.9729 H   0  0  0  0  0  0  0  0  0  0  0  0
    2.8072    1.6374    1.2796 H   0  0  0  0  0  0  0  0  0  0  0  0
    1.8562    1.0177    2.5395 H   0  0  0  0  0  0  0  0  0  0  0  0
    1.1802   -2.1637    2.2954 H   0  0  0  0  0  0  0  0  0  0  0  0
    3.9495   -5.0896    4.2769 H   0  0  0  0  0  0  0  0  0  0  0  0
    4.9871   -4.1847    5.3705 H   0  0  0  0  0  0  0  0  0  0  0  0
    2.3337   -4.9399    5.8292 H   0  0  0  0  0  0  0  0  0  0  0  0
    3.4506   -2.1926    6.5758 H   0  0  0  0  0  0  0  0  0  0  0  0
    2.4031    1.0434    4.4787 H   0  0  0  0  0  0  0  0  0  0  0  0
   -1.3539    2.8794    7.0227 H   0  0  0  0  0  0  0  0  0  0  0  0
   -2.0306    1.4597    7.8575 H   0  0  0  0  0  0  0  0  0  0  0  0
   -0.1722    3.6605    8.9879 H   0  0  0  0  0  0  0  0  0  0  0  0
   -1.4572    2.8293    9.7806 H   0  0  0  0  0  0  0  0  0  0  0  0
    0.9640    1.3714   12.0403 H   0  0  0  0  0  0  0  0  0  0  0  0
   -0.6706    1.9142   11.7777 H   0  0  0  0  0  0  0  0  0  0  0  0
    0.6442    3.0610   11.6791 H   0  0  0  0  0  0  0  0  0  0  0  0
    2.9465    2.4863   11.2673 H   0  0  0  0  0  0  0  0  0  0  0  0
    4.7742    2.9620    9.3909 H   0  0  0  0  0  0  0  0  0  0  0  0
    5.1445    1.5255   10.3359 H   0  0  0  0  0  0  0  0  0  0  0  0
    4.7655    1.5219    7.5503 H   0  0  0  0  0  0  0  0  0  0  0  0
    3.0411   -1.3558    9.5650 H   0  0  0  0  0  0  0  0  0  0  0  0
    4.3288   -0.8213   10.6657 H   0  0  0  0  0  0  0  0  0  0  0  0
    6.1428   -0.6286    7.0312 H   0  0  0  0  0  0  0  0  0  0  0  0
    2.7252    3.2818    7.4912 H   0  0  0  0  0  0  0  0  0  0  0  0
    2.7225    2.2103    6.1458 H   0  0  0  0  0  0  0  0  0  0  0  0
    0.8557   -3.5948    5.6552 H   0  0  0  0  0  0  0  0  0  0  0  0
   -1.2611   -1.5444    6.3527 H   0  0  0  0  0  0  0  0  0  0  0  0
   -1.4665   -3.2895    6.3691 H   0  0  0  0  0  0  0  0  0  0  0  0
   -1.1278   -2.4801    4.8676 H   0  0  0  0  0  0  0  0  0  0  0  0
    0.5453   -2.1443    8.2974 H   0  0  0  0  0  0  0  0  0  0  0  0
    1.9006   -3.1670    7.8901 H   0  0  0  0  0  0  0  0  0  0  0  0
    0.2777   -3.8321    7.9930 H   0  0  0  0  0  0  0  0  0  0  0  0
    0.2438   -0.0102    2.9961 H   0  0  0  0  0  0  0  0  0  0  0  0
    4.5725   -4.2015    2.0853 H   0  0  0  0  0  0  0  0  0  0  0  0
    5.8506   -4.0293    3.2843 H   0  0  0  0  0  0  0  0  0  0  0  0
    5.8188   -2.9910    1.8807 H   0  0  0  0  0  0  0  0  0  0  0  0
    5.8065   -1.2485    3.0226 H   0  0  0  0  0  0  0  0  0  0  0  0
  1  2  1  0
  1 53  1  0
  1 54  1  0
  1 55  1  0
  2  4  1  0
  2  3  1  0
  2 56  1  6
  3  4  1  0
  4  5  1  1
  4  6  1  0
  5 57  1  0
  5 58  1  0
  5 59  1  0
  6 11  1  0
  6  7  1  0
  6 60  1  6
  7  8  1  0
  7 61  1  0
  7 62  1  0
  8  9  1  0
  8 10  1  0
  8 63  1  1
  9 64  1  0
  9 65  1  0
  9 66  1  0
 10 50  1  0
 10 11  1  6
 10 12  1  0
 12 48  1  0
 12 13  1  0
 12 67  1  6
 13 14  1  0
 14 15  1  1
 14 17  1  0
 14 50  1  0
 15 16  1  0
 15 68  1  0
 15 69  1  0
 16 70  1  0
 17 44  1  0
 17 18  1  0
 17 71  1  1
 18 19  1  0
 19 48  1  0
 19 20  1  0
 19 72  1  6
 20 43  1  1
 20 21  1  0
 20 44  1  0
 22 21  1  6
 22 29  1  0
 22 42  1  0
 22 23  1  0
 23 24  1  0
 23 73  1  0
 23 74  1  0
 24 25  1  0
 24 75  1  0
 24 76  1  0
 25 26  1  1
 25 27  1  0
 25 30  1  0
 26 77  1  0
 26 78  1  0
 26 79  1  0
 27 28  2  0
 27 29  1  0
 30 40  1  0
 30 31  2  0
 31 32  1  0
 31 80  1  0
 32 33  1  0
 32 81  1  0
 32 82  1  0
 33 40  1  0
 33 83  1  6
 33 34  1  0
 34 39  2  0
 34 35  1  0
 35 36  1  0
 35 84  1  0
 35 85  1  0
 36 37  1  0
 37 39  1  0
 37 38  2  0
 39 86  1  0
 40 41  1  0
 40 43  1  6
 41 42  1  0
 41 87  1  0
 41 88  1  0
 44 45  1  1
 44 48  1  0
 45 46  1  0
 45 47  1  0
 45 89  1  0
 46 90  1  0
 46 91  1  0
 46 92  1  0
 47 93  1  0
 47 94  1  0
 47 95  1  0
 48 49  1  6
 49 96  1  0
 50 51  1  0
 50 52  1  1
 51 97  1  0
 51 98  1  0
 51 99  1  0
 52100  1  0
M  END
>  <i_m_ct_stereo_status>  (210) 
1

>  <s_m_source_file>  (210) 
/var/tmp/pbs.5083858.sched01/tmpq77br8kz/85iinevzok.sdf

>  <i_m_source_file_index>  (210) 
3

>  <i_lp_mmshare_version>  (210) 
48012

>  <i_f3d_flags>  (210) 
0

>  <s_epik_input>  (210) 
W0NIM11bQ0BIXShPMSlbQ0BAXTEoW0NIM10pW0NAQEhdKE8yKVtDSDJdW0NAQEhdKFtDSDNdKVtDQEBdMjNbQ0BASF00W0NAXTUoW09IXSlbQ0BIXTZbQ0BdNyhbQ0BdNShbQ0hdKFtDSDNdKVtDSDNdKVtDQEhdKE82KVtDQF0oTzQpKFtDSDJdW09IXSlbQ0BdMyhbQ0gzXSlbT0hdKU9DODlbQ0gyXVtDSDJdW0NAQF0oW0NIM10pKEMoPU8pTzgpQz0xW0NAQF0oTzcpKFtDSDJdTzkpW0NAQEhdKFtDSDJdW0NIXTEpYzFbY0hdb2MoW09IXSlbY0hdMQ==

>  <s_epik_cmdline>  (210) 
J2VwaWtfcHl0aG9uJywgJy1waHQnLCAnMi4wJywgJy1waCcsICc3LjAnLCAnLXRuJywgJzgnLCAnLW1hJywgJzIwMCcsICctaW1hZScsICc8aW5maWxlLm1hZT4nLCAnLW9tYWUnLCAnPG91dGZpbGUubWFlPic=

>  <r_lp_tautomer_probability>  (210) 
1

>  <r_epik_Ionization_Penalty>  (210) 
4.6542e-06

>  <r_epik_Ionization_Penalty_Charging>  (210) 
0

>  <r_epik_Ionization_Penalty_Neutral>  (210) 
4.6542e-06

>  <r_epik_State_Penalty>  (210) 
-0

>  <r_epik_Charging_Adjusted_Penalty>  (210) 
0

>  <i_epik_Tot_Q>  (210) 
0

>  <i_epik_Tot_abs_Q>  (210) 
0

>  <s_epik_Chemistry_Notes>  (210) 
This compound has an ester and may undergo hydrolysis at high or low pH.

>  <s_lp_Force_Field>  (210) 
OPLS3e

>  <r_lp_Energy>  (210) 
168.752

>  <b_lp_Chiralities_Consistent>  (210) 
1

>  <s_lp_Variant>  (210) 
59:0-2

>  <s_i_glide_gridfile>  (210) 
pfpi4k_grid

>  <i_i_glide_lignum>  (210) 
3

>  <i_i_glide_rotatable_bonds>  (210) 
7

>  <r_i_docking_score>  (210) 
-1.41738

>  <r_i_glide_ligand_efficiency>  (210) 
-0.0272574

>  <r_i_glide_ligand_efficiency_sa>  (210) 
-0.101738

>  <r_i_glide_ligand_efficiency_ln>  (210) 
-0.286268

>  <r_i_glide_gscore>  (210) 
-1.41738

>  <r_i_glide_lipo>  (210) 
-0.281193

>  <r_i_glide_hbond>  (210) 
0

>  <r_i_glide_metal>  (210) 
-0

>  <r_i_glide_rewards>  (210) 
0

>  <r_i_glide_evdw>  (210) 
-25.7493

>  <r_i_glide_ecoul>  (210) 
0.479321

>  <r_i_glide_erotb>  (210) 
0.121689

>  <r_i_glide_esite>  (210) 
-0.0423134

>  <r_i_glide_emodel>  (210) 
-25.3837

>  <r_i_glide_energy>  (210) 
-25.27

>  <r_i_glide_einternal>  (210) 
2.18965

>  <r_i_glide_intrahb_reward>  (210) 
-0

>  <i_i_glide_confnum>  (210) 
1

>  <i_i_glide_posenum>  (210) 
27

>  <r_i_glide_eff_state_penalty>  (210) 
0

>  <ligand_id>  (210) 
59

>  <original_smiles>  (210) 
CC1OC1(C)C1CC(C)C2(O1)C1OC(CO)(C3OC4C5(OC67CCC(C)(C(=O)O6)C6=CCC(c8coc(O)c8)C6(CO7)O5)C3(C(C)C)C41O)C2(C)O

>  <smiles>  (210) 
[H]OC([H])([H])C12OC([H])(C3(OC([H])(C4(C([H])([H])[H])OC4([H])C([H])([H])[H])C([H])([H])C3([H])C([H])([H])[H])C1(O[H])C([H])([H])[H])C1(O[H])C3([H])OC2([H])C1(C([H])(C([H])([H])[H])C([H])([H])[H])C31OC23OC(=O)C(C([H])([H])[H])(C4=C([H])C([H])([H])C([H])(C5=C([H])C(=O)OC5([H])[H])C4(O1)C([H])([H])O2)C([H])([H])C3([H])[H]

$$$$
61:0:0
     RDKit          3D

 76 83  0  0  1  0  0  0  0  0999 V2000
    4.2006   -1.1096   -1.5181 C   0  0  0  0  0  0  0  0  0  0  0  0
    3.8253   -1.8701   -0.2736 C   0  0  0  0  0  0  0  0  0  0  0  0
    3.9216   -1.3899    0.9034 N   0  0  0  0  0  0  0  0  0  0  0  0
    3.5672   -2.1902    1.9952 C   0  0  0  0  0  0  0  0  0  0  0  0
    3.1078   -3.4527    1.8285 C   0  0  0  0  0  0  0  0  0  0  0  0
    2.9938   -4.0046    0.4516 C   0  0  0  0  0  0  0  0  0  0  0  0
    2.5497   -5.1287    0.2271 O   0  0  0  0  0  0  0  0  0  0  0  0
    3.3782   -3.1466   -0.5494 O   0  0  0  0  0  0  0  0  0  0  0  0
    2.6243   -4.3571    2.9827 C   0  0  1  0  0  0  0  0  0  0  0  0
    3.3420   -5.5779    3.0332 O   0  0  0  0  0  0  0  0  0  0  0  0
    2.7037   -3.6920    4.3847 C   0  0  0  0  0  0  0  0  0  0  0  0
    2.5139   -2.1726    4.2744 C   0  0  1  0  0  0  0  0  0  0  0  0
    2.3805   -1.5125    5.5456 O   0  0  0  0  0  0  0  0  0  0  0  0
    2.0197   -0.1466    5.3226 C   0  0  2  0  0  0  0  0  0  0  0  0
    3.2868    0.5005    4.5830 C   0  0  2  0  0  0  0  0  0  0  0  0
    3.4457    2.0856    4.6744 C   0  0  0  0  0  0  0  0  0  0  0  0
    2.4608    2.5322    5.7751 C   0  0  2  0  0  0  0  0  0  0  0  0
    1.0839    2.3758    5.0554 C   0  0  0  0  0  0  0  0  0  0  0  0
    0.4520    1.8853    6.2942 C   0  0  2  0  0  0  0  0  0  0  0  0
   -1.0044    1.4128    6.1622 C   0  0  0  0  0  0  0  0  0  0  0  0
    0.6638    3.3123    7.0341 C   0  0  2  0  0  0  0  0  0  0  0  0
   -0.4391    4.3751    6.8156 C   0  0  0  0  0  0  0  0  0  0  0  0
    0.0512    5.7783    7.1978 C   0  0  0  0  0  0  0  0  0  0  0  0
    1.1609    6.3243    6.2681 C   0  0  2  0  0  0  0  0  0  0  0  0
    1.8729    7.4786    7.0220 C   0  0  0  0  0  0  0  0  0  0  0  0
    0.5973    6.8079    4.9038 C   0  0  1  0  0  0  0  0  0  0  0  0
    0.1032    8.1321    4.8789 O   0  0  0  0  0  0  0  0  0  0  0  0
    1.7279    6.6330    3.8952 C   0  0  0  0  0  0  0  0  0  0  0  0
    2.4237    5.3462    4.3242 C   0  0  0  0  0  0  0  0  0  0  0  0
    2.2143    5.2419    5.8530 C   0  0  2  0  0  0  0  0  0  0  0  0
    2.0982    3.8286    6.5309 C   0  0  2  0  0  0  0  0  0  0  0  0
    1.4831    0.6779    6.5948 C   0  0  2  0  0  0  0  0  0  0  0  0
    2.6269    1.5370    6.9954 C   0  0  1  0  0  0  0  0  0  0  0  0
    3.8818    0.9635    7.3155 O   0  0  0  0  0  0  0  0  0  0  0  0
    3.4244   -0.1191    3.3038 O   0  0  0  0  0  0  0  0  0  0  0  0
    3.6347   -1.5470    3.3863 C   0  0  2  0  0  0  0  0  0  0  0  0
    5.0615   -1.8437    3.9141 C   0  0  0  0  0  0  0  0  0  0  0  0
    4.5566   -0.1125   -1.2574 H   0  0  0  0  0  0  0  0  0  0  0  0
    3.3332   -1.0181   -2.1741 H   0  0  0  0  0  0  0  0  0  0  0  0
    4.9995   -1.6310   -2.0472 H   0  0  0  0  0  0  0  0  0  0  0  0
    1.5759   -4.6019    2.7878 H   0  0  0  0  0  0  0  0  0  0  0  0
    3.2372   -6.0305    2.2021 H   0  0  0  0  0  0  0  0  0  0  0  0
    1.9490   -4.1261    5.0430 H   0  0  0  0  0  0  0  0  0  0  0  0
    3.6554   -3.9135    4.8673 H   0  0  0  0  0  0  0  0  0  0  0  0
    1.5675   -2.0533    3.7514 H   0  0  0  0  0  0  0  0  0  0  0  0
    1.1692   -0.2122    4.6465 H   0  0  0  0  0  0  0  0  0  0  0  0
    4.1671    0.1684    5.1133 H   0  0  0  0  0  0  0  0  0  0  0  0
    4.4684    2.3578    4.9316 H   0  0  0  0  0  0  0  0  0  0  0  0
    3.2205    2.5557    3.7194 H   0  0  0  0  0  0  0  0  0  0  0  0
    0.6283    3.2881    4.6822 H   0  0  0  0  0  0  0  0  0  0  0  0
    1.0183    1.7385    4.1780 H   0  0  0  0  0  0  0  0  0  0  0  0
   -1.4273    1.1889    7.1414 H   0  0  0  0  0  0  0  0  0  0  0  0
   -1.0642    0.5078    5.5581 H   0  0  0  0  0  0  0  0  0  0  0  0
   -1.6388    2.1580    5.6833 H   0  0  0  0  0  0  0  0  0  0  0  0
    0.6863    3.1576    8.1185 H   0  0  0  0  0  0  0  0  0  0  0  0
   -0.8443    4.3697    5.7953 H   0  0  0  0  0  0  0  0  0  0  0  0
   -1.2861    4.1266    7.4503 H   0  0  0  0  0  0  0  0  0  0  0  0
   -0.7890    6.4653    7.1814 H   0  0  0  0  0  0  0  0  0  0  0  0
    0.3879    5.7695    8.2420 H   0  0  0  0  0  0  0  0  0  0  0  0
    2.6410    7.9562    6.4126 H   0  0  0  0  0  0  0  0  0  0  0  0
    2.3611    7.1126    7.9271 H   0  0  0  0  0  0  0  0  0  0  0  0
    1.1717    8.2537    7.3336 H   0  0  0  0  0  0  0  0  0  0  0  0
   -0.2094    6.1463    4.5851 H   0  0  0  0  0  0  0  0  0  0  0  0
    0.1243    8.4300    3.9578 H   0  0  0  0  0  0  0  0  0  0  0  0
    1.3450    6.5464    2.8786 H   0  0  0  0  0  0  0  0  0  0  0  0
    2.4260    7.4761    3.9255 H   0  0  0  0  0  0  0  0  0  0  0  0
    1.9861    4.5291    3.7639 H   0  0  0  0  0  0  0  0  0  0  0  0
    3.4815    5.3673    4.0573 H   0  0  0  0  0  0  0  0  0  0  0  0
    3.1712    5.6114    6.2271 H   0  0  0  0  0  0  0  0  0  0  0  0
    2.7331    3.9350    7.4131 H   0  0  0  0  0  0  0  0  0  0  0  0
    1.1453    0.0262    7.4007 H   0  0  0  0  0  0  0  0  0  0  0  0
    2.3981    1.9289    7.9839 H   0  0  0  0  0  0  0  0  0  0  0  0
    4.1996    0.4779    6.5683 H   0  0  0  0  0  0  0  0  0  0  0  0
    5.3650   -2.8757    3.7144 H   0  0  0  0  0  0  0  0  0  0  0  0
    5.1660   -1.7041    4.9911 H   0  0  0  0  0  0  0  0  0  0  0  0
    5.7910   -1.2102    3.4083 H   0  0  0  0  0  0  0  0  0  0  0  0
  1  2  1  0
  1 38  1  0
  1 39  1  0
  1 40  1  0
  2  8  1  0
  2  3  2  0
  3  4  1  0
  4 36  1  0
  4  5  2  0
  5  6  1  0
  5  9  1  0
  6  7  2  0
  6  8  1  0
  9 10  1  0
  9 11  1  0
  9 41  1  6
 10 42  1  0
 11 12  1  0
 11 43  1  0
 11 44  1  0
 12 36  1  0
 12 13  1  0
 12 45  1  6
 13 14  1  0
 14 32  1  0
 14 15  1  0
 14 46  1  6
 15 16  1  0
 15 35  1  0
 15 47  1  1
 17 16  1  6
 16 48  1  0
 16 49  1  0
 17 31  1  0
 17 33  1  0
 17 18  1  0
 18 19  1  0
 18 50  1  0
 18 51  1  0
 19 20  1  6
 19 21  1  0
 19 32  1  0
 20 52  1  0
 20 53  1  0
 20 54  1  0
 21 31  1  0
 21 22  1  0
 21 55  1  1
 22 23  1  0
 22 56  1  0
 22 57  1  0
 23 24  1  0
 23 58  1  0
 23 59  1  0
 24 30  1  0
 24 25  1  1
 24 26  1  0
 25 60  1  0
 25 61  1  0
 25 62  1  0
 26 27  1  0
 26 28  1  0
 26 63  1  6
 27 64  1  0
 28 29  1  0
 28 65  1  0
 28 66  1  0
 29 30  1  0
 29 67  1  0
 29 68  1  0
 30 31  1  0
 30 69  1  1
 31 70  1  1
 32 33  1  0
 32 71  1  1
 33 34  1  0
 33 72  1  1
 34 73  1  0
 35 36  1  0
 36 37  1  1
 37 74  1  0
 37 75  1  0
 37 76  1  0
M  END
>  <i_m_ct_stereo_status>  (211) 
1

>  <s_m_source_file>  (211) 
/var/tmp/pbs.5083858.sched01/tmpq77br8kz/85iinevzok.sdf

>  <i_m_source_file_index>  (211) 
5

>  <i_lp_mmshare_version>  (211) 
48012

>  <i_f3d_flags>  (211) 
0

>  <s_epik_input>  (211) 
W0NIM11jKG4xKW9jKD1PKWMoW0NAQEhdKFtPSF0pW0NIMl1bQ0BIXTJPMyljMVtDQEBdMihbQ0gzXSlPW0NAQEhdKFtDSDJdNClbQ0BASF0zW0NAQEhdKFtDQEhdNVtPSF0pW0NAQF0oW0NIMl02KShbQ0gzXSlbQ0BASF0oW0NASF03W0NAQF00NTYpW0NIMl1bQ0gyXVtDQEBdOChbQ0gzXSlbQ0BASF03W0NIMl1bQ0gyXVtDQEBIXThbT0hd

>  <s_epik_cmdline>  (211) 
J2VwaWtfcHl0aG9uJywgJy1waHQnLCAnMi4wJywgJy1waCcsICc3LjAnLCAnLXRuJywgJzgnLCAnLW1hJywgJzIwMCcsICctaW1hZScsICc8aW5maWxlLm1hZT4nLCAnLW9tYWUnLCAnPG91dGZpbGUubWFlPic=

>  <r_epik_Ionization_Penalty>  (211) 
0.000750714

>  <r_epik_Ionization_Penalty_Charging>  (211) 
0

>  <r_epik_Ionization_Penalty_Neutral>  (211) 
0.000750714

>  <r_epik_State_Penalty>  (211) 
0.000477765

>  <r_epik_Charging_Adjusted_Penalty>  (211) 
0.000477765

>  <i_epik_Tot_Q>  (211) 
0

>  <i_epik_Tot_abs_Q>  (211) 
0

>  <s_lp_Force_Field>  (211) 
OPLS3e

>  <r_lp_Energy>  (211) 
196.699

>  <b_lp_Chiralities_Consistent>  (211) 
1

>  <s_lp_Variant>  (211) 
61:0-1

>  <s_i_glide_gridfile>  (211) 
pfpi4k_grid

>  <i_i_glide_lignum>  (211) 
5

>  <i_i_glide_rotatable_bonds>  (211) 
3

>  <r_i_docking_score>  (211) 
-3.01912

>  <r_i_glide_ligand_efficiency>  (211) 
-0.0815978

>  <r_i_glide_ligand_efficiency_sa>  (211) 
-0.271902

>  <r_i_glide_ligand_efficiency_ln>  (211) 
-0.654776

>  <r_i_glide_gscore>  (211) 
-3.01912

>  <r_i_glide_lipo>  (211) 
-0.0617763

>  <r_i_glide_hbond>  (211) 
-0.30711

>  <r_i_glide_metal>  (211) 
-0

>  <r_i_glide_rewards>  (211) 
-0.5

>  <r_i_glide_evdw>  (211) 
-21.6088

>  <r_i_glide_ecoul>  (211) 
-7.13196

>  <r_i_glide_erotb>  (211) 
0

>  <r_i_glide_esite>  (211) 
0

>  <r_i_glide_emodel>  (211) 
-39.5862

>  <r_i_glide_energy>  (211) 
-28.7407

>  <r_i_glide_einternal>  (211) 
1.23026

>  <r_i_glide_intrahb_reward>  (211) 
-0.5

>  <i_i_glide_confnum>  (211) 
2

>  <i_i_glide_posenum>  (211) 
10

>  <r_i_glide_eff_state_penalty>  (211) 
0

>  <ligand_id>  (211) 
61

>  <original_smiles>  (211) 
Cc1nc2c(c(=O)o1)C(O)CC1OC3C(CC45CC(C)(C6CCC7(C)C(O)CCC7C64)C3C5O)OC21C

>  <smiles>  (211) 
[H]OC1([H])c2c(nc(C([H])([H])[H])oc2=O)C2(C([H])([H])[H])OC3([H])C([H])([H])C45C([H])([H])C(C([H])([H])[H])(C([H])(C3([H])OC2([H])C1([H])[H])C4([H])O[H])C1([H])C([H])([H])C([H])([H])C2(C([H])([H])[H])C([H])(O[H])C([H])([H])C([H])([H])C2([H])C15[H]

$$$$
61:0:1
     RDKit          3D

 76 83  0  0  1  0  0  0  0  0999 V2000
    3.9029   -1.4459   -1.4120 C   0  0  0  0  0  0  0  0  0  0  0  0
    3.6089   -2.1744   -0.1235 C   0  0  0  0  0  0  0  0  0  0  0  0
    3.7627   -1.6537    1.0274 N   0  0  0  0  0  0  0  0  0  0  0  0
    3.4749   -2.4128    2.1661 C   0  0  0  0  0  0  0  0  0  0  0  0
    3.0158   -3.6917    2.0683 C   0  0  0  0  0  0  0  0  0  0  0  0
    2.8363   -4.2872    0.7107 C   0  0  0  0  0  0  0  0  0  0  0  0
    2.3879   -5.4268    0.5416 O   0  0  0  0  0  0  0  0  0  0  0  0
    3.1556   -3.4623   -0.3274 O   0  0  0  0  0  0  0  0  0  0  0  0
    2.6078   -4.5557    3.2782 C   0  0  1  0  0  0  0  0  0  0  0  0
    3.3374   -5.7682    3.3293 O   0  0  0  0  0  0  0  0  0  0  0  0
    2.7566   -3.8401    4.6476 C   0  0  0  0  0  0  0  0  0  0  0  0
    2.5462   -2.3264    4.4936 C   0  0  1  0  0  0  0  0  0  0  0  0
    2.4689   -1.6278    5.7491 O   0  0  0  0  0  0  0  0  0  0  0  0
    2.0941   -0.2692    5.5045 C   0  0  2  0  0  0  0  0  0  0  0  0
    3.3107    0.3595    4.6742 C   0  0  2  0  0  0  0  0  0  0  0  0
    3.4557    1.9494    4.6986 C   0  0  0  0  0  0  0  0  0  0  0  0
    2.5276    2.4287    5.8376 C   0  0  2  0  0  0  0  0  0  0  0  0
    1.1161    2.2353    5.1985 C   0  0  0  0  0  0  0  0  0  0  0  0
    0.5612    1.7836    6.4849 C   0  0  2  0  0  0  0  0  0  0  0  0
   -0.8964    1.2917    6.4525 C   0  0  0  0  0  0  0  0  0  0  0  0
    0.7969    3.2385    7.1622 C   0  0  2  0  0  0  0  0  0  0  0  0
   -0.3300    4.2814    6.9693 C   0  0  0  0  0  0  0  0  0  0  0  0
    0.1671    5.7023    7.2739 C   0  0  0  0  0  0  0  0  0  0  0  0
    1.2203    6.2259    6.2671 C   0  0  2  0  0  0  0  0  0  0  0  0
    1.9594    7.4105    6.9410 C   0  0  0  0  0  0  0  0  0  0  0  0
    0.5751    6.6555    4.9188 C   0  0  1  0  0  0  0  0  0  0  0  0
    0.0595    7.9762    4.8813 O   0  0  0  0  0  0  0  0  0  0  0  0
    1.6514    6.4608    3.8547 C   0  0  0  0  0  0  0  0  0  0  0  0
    2.3791    5.1930    4.2890 C   0  0  0  0  0  0  0  0  0  0  0  0
    2.2604    5.1390    5.8328 C   0  0  2  0  0  0  0  0  0  0  0  0
    2.1948    3.7490    6.5642 C   0  0  2  0  0  0  0  0  0  0  0  0
    1.6202    0.5972    6.7721 C   0  0  2  0  0  0  0  0  0  0  0  0
    2.7741    1.4782    7.0828 C   0  0  1  0  0  0  0  0  0  0  0  0
    4.0451    0.9053    7.3324 O   0  0  0  0  0  0  0  0  0  0  0  0
    3.3809   -0.2991    3.4070 O   0  0  0  0  0  0  0  0  0  0  0  0
    3.6099   -1.7221    3.5262 C   0  0  2  0  0  0  0  0  0  0  0  0
    5.0674   -1.9879    3.9828 C   0  0  0  0  0  0  0  0  0  0  0  0
    4.2529   -0.4285   -1.2093 H   0  0  0  0  0  0  0  0  0  0  0  0
    3.0005   -1.3853   -2.0233 H   0  0  0  0  0  0  0  0  0  0  0  0
    4.6758   -1.9767   -1.9693 H   0  0  0  0  0  0  0  0  0  0  0  0
    1.5547   -4.8116    3.1460 H   0  0  0  0  0  0  0  0  0  0  0  0
    3.1443   -6.2762    2.5498 H   0  0  0  0  0  0  0  0  0  0  0  0
    2.0425   -4.2553    5.3598 H   0  0  0  0  0  0  0  0  0  0  0  0
    3.7366   -4.0349    5.0833 H   0  0  0  0  0  0  0  0  0  0  0  0
    1.5692   -2.2319    4.0186 H   0  0  0  0  0  0  0  0  0  0  0  0
    1.2085   -0.3611    4.8774 H   0  0  0  0  0  0  0  0  0  0  0  0
    4.2254    0.0524    5.1659 H   0  0  0  0  0  0  0  0  0  0  0  0
    4.4895    2.2407    4.8869 H   0  0  0  0  0  0  0  0  0  0  0  0
    3.1742    2.3846    3.7394 H   0  0  0  0  0  0  0  0  0  0  0  0
    0.6305    3.1279    4.8167 H   0  0  0  0  0  0  0  0  0  0  0  0
    1.0091    1.5666    4.3508 H   0  0  0  0  0  0  0  0  0  0  0  0
   -1.2624    1.1012    7.4621 H   0  0  0  0  0  0  0  0  0  0  0  0
   -0.9809    0.3647    5.8848 H   0  0  0  0  0  0  0  0  0  0  0  0
   -1.5653    2.0151    5.9860 H   0  0  0  0  0  0  0  0  0  0  0  0
    0.8776    3.1222    8.2452 H   0  0  0  0  0  0  0  0  0  0  0  0
   -0.7844    4.2385    5.9791 H   0  0  0  0  0  0  0  0  0  0  0  0
   -1.1399    4.0470    7.6594 H   0  0  0  0  0  0  0  0  0  0  0  0
   -0.6821    6.3823    7.2787 H   0  0  0  0  0  0  0  0  0  0  0  0
    0.5598    5.7303    8.2929 H   0  0  0  0  0  0  0  0  0  0  0  0
    2.6886    7.8733    6.2751 H   0  0  0  0  0  0  0  0  0  0  0  0
    2.4970    7.0798    7.8310 H   0  0  0  0  0  0  0  0  0  0  0  0
    1.2679    8.1904    7.2620 H   0  0  0  0  0  0  0  0  0  0  0  0
   -0.2399    5.9758    4.6709 H   0  0  0  0  0  0  0  0  0  0  0  0
    0.0618    8.2501    3.9565 H   0  0  0  0  0  0  0  0  0  0  0  0
    1.2137    6.3523    2.8635 H   0  0  0  0  0  0  0  0  0  0  0  0
    2.3393    7.3064    3.8240 H   0  0  0  0  0  0  0  0  0  0  0  0
    1.9218    4.3516    3.7824 H   0  0  0  0  0  0  0  0  0  0  0  0
    3.4204    5.2106    3.9648 H   0  0  0  0  0  0  0  0  0  0  0  0
    3.2328    5.5277    6.1397 H   0  0  0  0  0  0  0  0  0  0  0  0
    2.8760    3.8939    7.4044 H   0  0  0  0  0  0  0  0  0  0  0  0
    1.3337   -0.0286    7.6158 H   0  0  0  0  0  0  0  0  0  0  0  0
    2.5949    1.9054    8.0699 H   0  0  0  0  0  0  0  0  0  0  0  0
    4.6585    1.6016    7.5254 H   0  0  0  0  0  0  0  0  0  0  0  0
    5.3693   -3.0244    3.8021 H   0  0  0  0  0  0  0  0  0  0  0  0
    5.2274   -1.8089    5.0472 H   0  0  0  0  0  0  0  0  0  0  0  0
    5.7660   -1.3641    3.4203 H   0  0  0  0  0  0  0  0  0  0  0  0
  1  2  1  0
  1 38  1  0
  1 39  1  0
  1 40  1  0
  2  8  1  0
  2  3  2  0
  3  4  1  0
  4 36  1  0
  4  5  2  0
  5  6  1  0
  5  9  1  0
  6  7  2  0
  6  8  1  0
  9 10  1  0
  9 11  1  0
  9 41  1  6
 10 42  1  0
 11 12  1  0
 11 43  1  0
 11 44  1  0
 12 36  1  0
 12 13  1  0
 12 45  1  6
 13 14  1  0
 14 32  1  0
 14 15  1  0
 14 46  1  6
 15 16  1  0
 15 35  1  0
 15 47  1  1
 17 16  1  6
 16 48  1  0
 16 49  1  0
 17 31  1  0
 17 33  1  0
 17 18  1  0
 18 19  1  0
 18 50  1  0
 18 51  1  0
 19 20  1  6
 19 21  1  0
 19 32  1  0
 20 52  1  0
 20 53  1  0
 20 54  1  0
 21 31  1  0
 21 22  1  0
 21 55  1  1
 22 23  1  0
 22 56  1  0
 22 57  1  0
 23 24  1  0
 23 58  1  0
 23 59  1  0
 24 30  1  0
 24 25  1  1
 24 26  1  0
 25 60  1  0
 25 61  1  0
 25 62  1  0
 26 27  1  0
 26 28  1  0
 26 63  1  6
 27 64  1  0
 28 29  1  0
 28 65  1  0
 28 66  1  0
 29 30  1  0
 29 67  1  0
 29 68  1  0
 30 31  1  0
 30 69  1  1
 31 70  1  1
 32 33  1  0
 32 71  1  1
 33 34  1  0
 33 72  1  1
 34 73  1  0
 35 36  1  0
 36 37  1  1
 37 74  1  0
 37 75  1  0
 37 76  1  0
M  END
>  <i_m_ct_stereo_status>  (212) 
1

>  <s_m_source_file>  (212) 
/var/tmp/pbs.5083858.sched01/tmpq77br8kz/85iinevzok.sdf

>  <i_m_source_file_index>  (212) 
5

>  <i_lp_mmshare_version>  (212) 
48012

>  <i_f3d_flags>  (212) 
0

>  <s_epik_input>  (212) 
W0NIM11jKG4xKW9jKD1PKWMoW0NAQEhdKFtPSF0pW0NIMl1bQ0BIXTJPMyljMVtDQEBdMihbQ0gzXSlPW0NAQEhdKFtDSDJdNClbQ0BASF0zW0NAQEhdKFtDQEhdNVtPSF0pW0NAQF0oW0NIMl02KShbQ0gzXSlbQ0BASF0oW0NASF03W0NAQF00NTYpW0NIMl1bQ0gyXVtDQEBdOChbQ0gzXSlbQ0BASF03W0NIMl1bQ0gyXVtDQEBIXThbT0hd

>  <s_epik_cmdline>  (212) 
J2VwaWtfcHl0aG9uJywgJy1waHQnLCAnMi4wJywgJy1waCcsICc3LjAnLCAnLXRuJywgJzgnLCAnLW1hJywgJzIwMCcsICctaW1hZScsICc8aW5maWxlLm1hZT4nLCAnLW9tYWUnLCAnPG91dGZpbGUubWFlPic=

>  <r_epik_Ionization_Penalty>  (212) 
0.000750714

>  <r_epik_Ionization_Penalty_Charging>  (212) 
0

>  <r_epik_Ionization_Penalty_Neutral>  (212) 
0.000750714

>  <r_epik_State_Penalty>  (212) 
0.000477765

>  <r_epik_Charging_Adjusted_Penalty>  (212) 
0.000477765

>  <i_epik_Tot_Q>  (212) 
0

>  <i_epik_Tot_abs_Q>  (212) 
0

>  <s_lp_Force_Field>  (212) 
OPLS3e

>  <r_lp_Energy>  (212) 
196.699

>  <b_lp_Chiralities_Consistent>  (212) 
1

>  <s_lp_Variant>  (212) 
61:0-1

>  <s_i_glide_gridfile>  (212) 
pfpi4k_grid

>  <i_i_glide_lignum>  (212) 
5

>  <i_i_glide_rotatable_bonds>  (212) 
3

>  <r_i_docking_score>  (212) 
-2.99703

>  <r_i_glide_ligand_efficiency>  (212) 
-0.0810008

>  <r_i_glide_ligand_efficiency_sa>  (212) 
-0.269913

>  <r_i_glide_ligand_efficiency_ln>  (212) 
-0.649985

>  <r_i_glide_gscore>  (212) 
-2.99703

>  <r_i_glide_lipo>  (212) 
-0.057318

>  <r_i_glide_hbond>  (212) 
-0.32

>  <r_i_glide_metal>  (212) 
-0

>  <r_i_glide_rewards>  (212) 
-0.5

>  <r_i_glide_evdw>  (212) 
-20.2799

>  <r_i_glide_ecoul>  (212) 
-7.37145

>  <r_i_glide_erotb>  (212) 
0

>  <r_i_glide_esite>  (212) 
0

>  <r_i_glide_emodel>  (212) 
-38.3075

>  <r_i_glide_energy>  (212) 
-27.6513

>  <r_i_glide_einternal>  (212) 
1.50435

>  <r_i_glide_intrahb_reward>  (212) 
-0.5

>  <i_i_glide_confnum>  (212) 
1

>  <i_i_glide_posenum>  (212) 
11

>  <r_i_glide_eff_state_penalty>  (212) 
0

>  <ligand_id>  (212) 
61

>  <original_smiles>  (212) 
Cc1nc2c(c(=O)o1)C(O)CC1OC3C(CC45CC(C)(C6CCC7(C)C(O)CCC7C64)C3C5O)OC21C

>  <smiles>  (212) 
[H]OC1([H])c2c(nc(C([H])([H])[H])oc2=O)C2(C([H])([H])[H])OC3([H])C([H])([H])C45C([H])([H])C(C([H])([H])[H])(C([H])(C3([H])OC2([H])C1([H])[H])C4([H])O[H])C1([H])C([H])([H])C([H])([H])C2(C([H])([H])[H])C([H])(O[H])C([H])([H])C([H])([H])C2([H])C15[H]

$$$$
61:0:2
     RDKit          3D

 76 83  0  0  1  0  0  0  0  0999 V2000
   -1.1961   -8.2189    2.8918 C   0  0  0  0  0  0  0  0  0  0  0  0
    0.2749   -7.9721    2.6468 C   0  0  0  0  0  0  0  0  0  0  0  0
    0.7441   -6.8518    2.2786 N   0  0  0  0  0  0  0  0  0  0  0  0
    2.1294   -6.7302    2.0759 C   0  0  0  0  0  0  0  0  0  0  0  0
    2.9757   -7.7837    2.2671 C   0  0  0  0  0  0  0  0  0  0  0  0
    2.4036   -9.0879    2.7051 C   0  0  0  0  0  0  0  0  0  0  0  0
    3.0897  -10.0894    2.9240 O   0  0  0  0  0  0  0  0  0  0  0  0
    1.0501   -9.0951    2.8714 O   0  0  0  0  0  0  0  0  0  0  0  0
    4.5095   -7.7028    2.1219 C   0  0  1  0  0  0  0  0  0  0  0  0
    4.9895   -8.6415    1.1712 O   0  0  0  0  0  0  0  0  0  0  0  0
    5.0337   -6.2934    1.7401 C   0  0  0  0  0  0  0  0  0  0  0  0
    4.1053   -5.1998    2.2878 C   0  0  1  0  0  0  0  0  0  0  0  0
    4.6350   -3.8700    2.1326 O   0  0  0  0  0  0  0  0  0  0  0  0
    3.7911   -2.9506    2.8342 C   0  0  2  0  0  0  0  0  0  0  0  0
    2.3900   -3.0059    2.0681 C   0  0  2  0  0  0  0  0  0  0  0  0
    1.4179   -1.7506    2.2513 C   0  0  0  0  0  0  0  0  0  0  0  0
    2.2889   -0.6400    2.8762 C   0  0  2  0  0  0  0  0  0  0  0  0
    2.4294   -1.1545    4.3431 C   0  0  0  0  0  0  0  0  0  0  0  0
    3.8254   -0.6944    4.3976 C   0  0  2  0  0  0  0  0  0  0  0  0
    4.5996   -1.0665    5.6738 C   0  0  0  0  0  0  0  0  0  0  0  0
    3.3742    0.8578    4.2752 C   0  0  2  0  0  0  0  0  0  0  0  0
    3.0191    1.5810    5.5940 C   0  0  0  0  0  0  0  0  0  0  0  0
    2.2271    2.8674    5.3269 C   0  0  0  0  0  0  0  0  0  0  0  0
    0.8185    2.6248    4.7314 C   0  0  2  0  0  0  0  0  0  0  0  0
    0.3494    3.9561    4.0871 C   0  0  0  0  0  0  0  0  0  0  0  0
   -0.1825    2.1368    5.8129 C   0  0  1  0  0  0  0  0  0  0  0  0
   -0.7951    3.1734    6.5511 O   0  0  0  0  0  0  0  0  0  0  0  0
   -1.2273    1.2982    5.0796 C   0  0  0  0  0  0  0  0  0  0  0  0
   -0.4218    0.5615    4.0131 C   0  0  0  0  0  0  0  0  0  0  0  0
    0.7737    1.4824    3.6648 C   0  0  2  0  0  0  0  0  0  0  0  0
    2.1487    0.8526    3.2396 C   0  0  2  0  0  0  0  0  0  0  0  0
    4.3622   -1.4680    3.0823 C   0  0  2  0  0  0  0  0  0  0  0  0
    3.6631   -0.6134    2.0853 C   0  0  1  0  0  0  0  0  0  0  0  0
    3.7320   -0.9403    0.7063 O   0  0  0  0  0  0  0  0  0  0  0  0
    1.8325   -4.3108    2.2480 O   0  0  0  0  0  0  0  0  0  0  0  0
    2.6687   -5.3543    1.6941 C   0  0  2  0  0  0  0  0  0  0  0  0
    2.6486   -5.3064    0.1406 C   0  0  0  0  0  0  0  0  0  0  0  0
   -1.7756   -7.3076    2.7123 H   0  0  0  0  0  0  0  0  0  0  0  0
   -1.3587   -8.5402    3.9219 H   0  0  0  0  0  0  0  0  0  0  0  0
   -1.5558   -8.9984    2.2196 H   0  0  0  0  0  0  0  0  0  0  0  0
    4.9303   -7.9687    3.0954 H   0  0  0  0  0  0  0  0  0  0  0  0
    4.7008   -9.5161    1.4188 H   0  0  0  0  0  0  0  0  0  0  0  0
    6.0467   -6.1604    2.1229 H   0  0  0  0  0  0  0  0  0  0  0  0
    5.1232   -6.1968    0.6577 H   0  0  0  0  0  0  0  0  0  0  0  0
    4.0475   -5.3984    3.3601 H   0  0  0  0  0  0  0  0  0  0  0  0
    3.6974   -3.3885    3.8284 H   0  0  0  0  0  0  0  0  0  0  0  0
    2.5957   -2.9643    1.0036 H   0  0  0  0  0  0  0  0  0  0  0  0
    1.0154   -1.4249    1.2950 H   0  0  0  0  0  0  0  0  0  0  0  0
    0.5633   -1.9999    2.8822 H   0  0  0  0  0  0  0  0  0  0  0  0
    1.7914   -0.6841    5.0866 H   0  0  0  0  0  0  0  0  0  0  0  0
    2.2443   -2.2039    4.5523 H   0  0  0  0  0  0  0  0  0  0  0  0
    5.5767   -0.5828    5.6884 H   0  0  0  0  0  0  0  0  0  0  0  0
    4.7644   -2.1429    5.7295 H   0  0  0  0  0  0  0  0  0  0  0  0
    4.0685   -0.7749    6.5796 H   0  0  0  0  0  0  0  0  0  0  0  0
    4.2016    1.4370    3.8655 H   0  0  0  0  0  0  0  0  0  0  0  0
    2.4812    0.9453    6.2932 H   0  0  0  0  0  0  0  0  0  0  0  0
    3.9420    1.8442    6.1092 H   0  0  0  0  0  0  0  0  0  0  0  0
    2.1306    3.4236    6.2578 H   0  0  0  0  0  0  0  0  0  0  0  0
    2.8132    3.5126    4.6711 H   0  0  0  0  0  0  0  0  0  0  0  0
   -0.6620    3.8849    3.6866 H   0  0  0  0  0  0  0  0  0  0  0  0
    1.0010    4.2389    3.2581 H   0  0  0  0  0  0  0  0  0  0  0  0
    0.3672    4.7845    4.7960 H   0  0  0  0  0  0  0  0  0  0  0  0
    0.3228    1.4822    6.5218 H   0  0  0  0  0  0  0  0  0  0  0  0
   -0.1302    3.6051    7.0713 H   0  0  0  0  0  0  0  0  0  0  0  0
   -1.7460    0.6113    5.7479 H   0  0  0  0  0  0  0  0  0  0  0  0
   -1.9832    1.9285    4.6106 H   0  0  0  0  0  0  0  0  0  0  0  0
   -0.1322   -0.4017    4.4145 H   0  0  0  0  0  0  0  0  0  0  0  0
   -1.0344    0.3559    3.1343 H   0  0  0  0  0  0  0  0  0  0  0  0
    0.4292    1.9576    2.7442 H   0  0  0  0  0  0  0  0  0  0  0  0
    2.4360    1.4745    2.3884 H   0  0  0  0  0  0  0  0  0  0  0  0
    5.4453   -1.4234    2.9867 H   0  0  0  0  0  0  0  0  0  0  0  0
    4.1839    0.3437    2.0538 H   0  0  0  0  0  0  0  0  0  0  0  0
    2.9290   -0.6503    0.2860 H   0  0  0  0  0  0  0  0  0  0  0  0
    3.0341   -6.2333   -0.2907 H   0  0  0  0  0  0  0  0  0  0  0  0
    3.2632   -4.5073   -0.2788 H   0  0  0  0  0  0  0  0  0  0  0  0
    1.6325   -5.1905   -0.2371 H   0  0  0  0  0  0  0  0  0  0  0  0
  1  2  1  0
  1 38  1  0
  1 39  1  0
  1 40  1  0
  2  8  1  0
  2  3  2  0
  3  4  1  0
  4 36  1  0
  4  5  2  0
  5  6  1  0
  5  9  1  0
  6  7  2  0
  6  8  1  0
  9 10  1  0
  9 11  1  0
  9 41  1  1
 10 42  1  0
 11 12  1  0
 11 43  1  0
 11 44  1  0
 12 36  1  0
 12 13  1  0
 12 45  1  1
 13 14  1  0
 14 32  1  0
 14 15  1  0
 14 46  1  1
 15 16  1  0
 15 35  1  0
 15 47  1  6
 17 16  1  6
 16 48  1  0
 16 49  1  0
 17 31  1  0
 17 33  1  0
 17 18  1  0
 18 19  1  0
 18 50  1  0
 18 51  1  0
 19 20  1  1
 19 21  1  0
 19 32  1  0
 20 52  1  0
 20 53  1  0
 20 54  1  0
 21 31  1  0
 21 22  1  0
 21 55  1  6
 22 23  1  0
 22 56  1  0
 22 57  1  0
 23 24  1  0
 23 58  1  0
 23 59  1  0
 24 30  1  0
 24 25  1  6
 24 26  1  0
 25 60  1  0
 25 61  1  0
 25 62  1  0
 26 27  1  0
 26 28  1  0
 26 63  1  1
 27 64  1  0
 28 29  1  0
 28 65  1  0
 28 66  1  0
 29 30  1  0
 29 67  1  0
 29 68  1  0
 30 31  1  0
 30 69  1  6
 31 70  1  6
 32 33  1  0
 32 71  1  6
 33 34  1  0
 33 72  1  6
 34 73  1  0
 35 36  1  0
 36 37  1  6
 37 74  1  0
 37 75  1  0
 37 76  1  0
M  END
>  <i_m_ct_stereo_status>  (213) 
1

>  <s_m_source_file>  (213) 
/var/tmp/pbs.5083858.sched01/tmpq77br8kz/85iinevzok.sdf

>  <i_m_source_file_index>  (213) 
5

>  <i_lp_mmshare_version>  (213) 
48012

>  <i_f3d_flags>  (213) 
0

>  <s_epik_input>  (213) 
W0NIM11jKG4xKW9jKD1PKWMoW0NAQEhdKFtPSF0pW0NIMl1bQ0BIXTJPMyljMVtDQEBdMihbQ0gzXSlPW0NAQEhdKFtDSDJdNClbQ0BASF0zW0NAQEhdKFtDQEhdNVtPSF0pW0NAQF0oW0NIMl02KShbQ0gzXSlbQ0BASF0oW0NASF03W0NAQF00NTYpW0NIMl1bQ0gyXVtDQEBdOChbQ0gzXSlbQ0BASF03W0NIMl1bQ0gyXVtDQEBIXThbT0hd

>  <s_epik_cmdline>  (213) 
J2VwaWtfcHl0aG9uJywgJy1waHQnLCAnMi4wJywgJy1waCcsICc3LjAnLCAnLXRuJywgJzgnLCAnLW1hJywgJzIwMCcsICctaW1hZScsICc8aW5maWxlLm1hZT4nLCAnLW9tYWUnLCAnPG91dGZpbGUubWFlPic=

>  <r_epik_Ionization_Penalty>  (213) 
0.000750714

>  <r_epik_Ionization_Penalty_Charging>  (213) 
0

>  <r_epik_Ionization_Penalty_Neutral>  (213) 
0.000750714

>  <r_epik_State_Penalty>  (213) 
0.000477765

>  <r_epik_Charging_Adjusted_Penalty>  (213) 
0.000477765

>  <i_epik_Tot_Q>  (213) 
0

>  <i_epik_Tot_abs_Q>  (213) 
0

>  <s_lp_Force_Field>  (213) 
OPLS3e

>  <r_lp_Energy>  (213) 
196.699

>  <b_lp_Chiralities_Consistent>  (213) 
1

>  <s_lp_Variant>  (213) 
61:0-1

>  <s_i_glide_gridfile>  (213) 
pfpi4k_grid

>  <i_i_glide_lignum>  (213) 
5

>  <i_i_glide_rotatable_bonds>  (213) 
3

>  <r_i_docking_score>  (213) 
-2.53106

>  <r_i_glide_ligand_efficiency>  (213) 
-0.0684071

>  <r_i_glide_ligand_efficiency_sa>  (213) 
-0.227948

>  <r_i_glide_ligand_efficiency_ln>  (213) 
-0.548928

>  <r_i_glide_gscore>  (213) 
-2.53106

>  <r_i_glide_lipo>  (213) 
-0.106183

>  <r_i_glide_hbond>  (213) 
0

>  <r_i_glide_metal>  (213) 
-0

>  <r_i_glide_rewards>  (213) 
-0.5

>  <r_i_glide_evdw>  (213) 
-28.7018

>  <r_i_glide_ecoul>  (213) 
-3.26527

>  <r_i_glide_erotb>  (213) 
0

>  <r_i_glide_esite>  (213) 
0

>  <r_i_glide_emodel>  (213) 
-41.4341

>  <r_i_glide_energy>  (213) 
-31.9671

>  <r_i_glide_einternal>  (213) 
1.71645

>  <r_i_glide_intrahb_reward>  (213) 
-0.5

>  <i_i_glide_confnum>  (213) 
1

>  <i_i_glide_posenum>  (213) 
31

>  <r_i_glide_eff_state_penalty>  (213) 
0

>  <ligand_id>  (213) 
61

>  <original_smiles>  (213) 
Cc1nc2c(c(=O)o1)C(O)CC1OC3C(CC45CC(C)(C6CCC7(C)C(O)CCC7C64)C3C5O)OC21C

>  <smiles>  (213) 
[H]OC1([H])c2c(nc(C([H])([H])[H])oc2=O)C2(C([H])([H])[H])OC3([H])C([H])([H])C45C([H])([H])C(C([H])([H])[H])(C([H])(C3([H])OC2([H])C1([H])[H])C4([H])O[H])C1([H])C([H])([H])C([H])([H])C2(C([H])([H])[H])C([H])(O[H])C([H])([H])C([H])([H])C2([H])C15[H]

$$$$
64:0:0
     RDKit          3D

 37 41  0  0  1  0  0  0  0  0999 V2000
    1.4314  -10.7720    3.3303 C   0  0  0  0  0  0  0  0  0  0  0  0
    0.8877   -9.7309    2.5242 C   0  0  0  0  0  0  0  0  0  0  0  0
    1.9190   -8.8465    2.4136 C   0  0  0  0  0  0  0  0  0  0  0  0
    2.0474   -7.5691    1.7337 C   0  0  0  0  0  0  0  0  0  0  0  0
    3.1071   -6.7664    1.7023 N   0  0  0  0  0  0  0  0  0  0  0  0
    2.6538   -5.7558    0.9103 C   0  0  0  0  0  0  0  0  0  0  0  0
    3.4938   -4.5479    0.5920 C   0  0  2  0  0  0  0  0  0  0  0  0
    3.7302   -3.6889    1.8627 C   0  0  0  0  0  0  0  0  0  0  0  0
    4.6126   -2.4697    1.5196 C   0  0  1  0  0  0  0  0  0  0  0  0
    5.9695   -2.9548    0.9673 C   0  0  0  0  0  0  0  0  0  0  0  0
    5.7361   -3.7755   -0.3182 C   0  0  2  0  0  0  0  0  0  0  0  0
    5.0211   -2.9194   -1.3818 C   0  0  0  0  0  0  0  0  0  0  0  0
    3.6756   -2.4318   -0.8147 C   0  0  2  0  0  0  0  0  0  0  0  0
    3.9069   -1.5968    0.4612 C   0  0  0  0  0  0  0  0  0  0  0  0
    2.8024   -3.6477   -0.4749 C   0  0  0  0  0  0  0  0  0  0  0  0
    4.8661   -5.0015    0.0163 C   0  0  0  0  0  0  0  0  0  0  0  0
    1.3901   -5.8699    0.5037 N   0  0  0  0  0  0  0  0  0  0  0  0
    0.9772   -7.0948    1.0457 O   0  0  0  0  0  0  0  0  0  0  0  0
    3.0030   -9.2996    3.0921 O   0  0  0  0  0  0  0  0  0  0  0  0
    2.6791  -10.5295    3.6781 N   0  0  0  0  0  0  0  0  0  0  0  0
    0.9785  -11.6873    3.6724 H   0  0  0  0  0  0  0  0  0  0  0  0
   -0.0939   -9.6418    2.0832 H   0  0  0  0  0  0  0  0  0  0  0  0
    2.7798   -3.3612    2.2858 H   0  0  0  0  0  0  0  0  0  0  0  0
    4.2161   -4.2847    2.6359 H   0  0  0  0  0  0  0  0  0  0  0  0
    4.7800   -1.8800    2.4204 H   0  0  0  0  0  0  0  0  0  0  0  0
    6.6251   -2.1081    0.7633 H   0  0  0  0  0  0  0  0  0  0  0  0
    6.4785   -3.5662    1.7132 H   0  0  0  0  0  0  0  0  0  0  0  0
    6.6944   -4.1138   -0.7099 H   0  0  0  0  0  0  0  0  0  0  0  0
    5.6372   -2.0704   -1.6753 H   0  0  0  0  0  0  0  0  0  0  0  0
    4.8497   -3.5154   -2.2800 H   0  0  0  0  0  0  0  0  0  0  0  0
    3.1590   -1.8235   -1.5557 H   0  0  0  0  0  0  0  0  0  0  0  0
    2.9523   -1.2350    0.8462 H   0  0  0  0  0  0  0  0  0  0  0  0
    4.5030   -0.7129    0.2292 H   0  0  0  0  0  0  0  0  0  0  0  0
    2.5966   -4.2201   -1.3817 H   0  0  0  0  0  0  0  0  0  0  0  0
    1.8396   -3.2871   -0.1088 H   0  0  0  0  0  0  0  0  0  0  0  0
    5.3924   -5.6304    0.7372 H   0  0  0  0  0  0  0  0  0  0  0  0
    4.7172   -5.6158   -0.8734 H   0  0  0  0  0  0  0  0  0  0  0  0
  1 20  2  0
  1  2  1  0
  1 21  1  0
  2  3  2  0
  2 22  1  0
  3  4  1  0
  3 19  1  0
  4 18  1  0
  4  5  2  0
  5  6  1  0
  7  6  1  1
  6 17  2  0
  7 15  1  0
  7 16  1  0
  7  8  1  0
  8  9  1  0
  8 23  1  0
  8 24  1  0
  9 14  1  0
  9 10  1  0
  9 25  1  1
 10 11  1  0
 10 26  1  0
 10 27  1  0
 11 12  1  0
 11 16  1  0
 11 28  1  6
 12 13  1  0
 12 29  1  0
 12 30  1  0
 13 14  1  0
 13 15  1  0
 13 31  1  6
 14 32  1  0
 14 33  1  0
 15 34  1  0
 15 35  1  0
 16 36  1  0
 16 37  1  0
 17 18  1  0
 19 20  1  0
M  END
>  <i_m_ct_stereo_status>  (214) 
1

>  <s_m_source_file>  (214) 
/var/tmp/pbs.5083858.sched01/tmp7646clus/90uu10lt13.sdf

>  <i_m_source_file_index>  (214) 
3

>  <i_lp_mmshare_version>  (214) 
48012

>  <i_f3d_flags>  (214) 
0

>  <s_epik_input>  (214) 
bzFuW2NIXVtjSF1jMS1jMm5jKG5vMilDMzRbQ0gyXVtDQEBIXTVbQ0gyXVtDQEhdKFtDSDJdNClbQ0gyXVtDQEBIXShbQ0gyXTUpW0NIMl0z

>  <s_epik_cmdline>  (214) 
J2VwaWtfcHl0aG9uJywgJy1waHQnLCAnMi4wJywgJy1waCcsICc3LjAnLCAnLXRuJywgJzgnLCAnLW1hJywgJzIwMCcsICctaW1hZScsICc8aW5maWxlLm1hZT4nLCAnLW9tYWUnLCAnPG91dGZpbGUubWFlPic=

>  <r_lp_tautomer_probability>  (214) 
1

>  <r_epik_Ionization_Penalty>  (214) 
2.21484e-11

>  <r_epik_Ionization_Penalty_Charging>  (214) 
0

>  <r_epik_Ionization_Penalty_Neutral>  (214) 
2.21484e-11

>  <r_epik_State_Penalty>  (214) 
0

>  <r_epik_Charging_Adjusted_Penalty>  (214) 
0

>  <i_epik_Tot_Q>  (214) 
0

>  <i_epik_Tot_abs_Q>  (214) 
0

>  <s_lp_Force_Field>  (214) 
OPLS3e

>  <r_lp_Energy>  (214) 
7.17532

>  <b_lp_Chiralities_Consistent>  (214) 
1

>  <s_lp_Variant>  (214) 
64:0-1

>  <s_i_glide_gridfile>  (214) 
pfpi4k_grid

>  <i_i_glide_lignum>  (214) 
3

>  <i_i_glide_rotatable_bonds>  (214) 
2

>  <r_i_docking_score>  (214) 
-3.54487

>  <r_i_glide_ligand_efficiency>  (214) 
-0.177243

>  <r_i_glide_ligand_efficiency_sa>  (214) 
-0.481112

>  <r_i_glide_ligand_efficiency_ln>  (214) 
-0.887163

>  <r_i_glide_gscore>  (214) 
-3.54487

>  <r_i_glide_lipo>  (214) 
-0.456242

>  <r_i_glide_hbond>  (214) 
0

>  <r_i_glide_metal>  (214) 
-0

>  <r_i_glide_rewards>  (214) 
-1.55922

>  <r_i_glide_evdw>  (214) 
-24.1698

>  <r_i_glide_ecoul>  (214) 
-3.98254

>  <r_i_glide_erotb>  (214) 
0.486386

>  <r_i_glide_esite>  (214) 
-0.209922

>  <r_i_glide_emodel>  (214) 
-35.4336

>  <r_i_glide_energy>  (214) 
-28.1523

>  <r_i_glide_einternal>  (214) 
0.225008

>  <r_i_glide_intrahb_reward>  (214) 
-0

>  <i_i_glide_confnum>  (214) 
4

>  <i_i_glide_posenum>  (214) 
18

>  <r_i_glide_eff_state_penalty>  (214) 
0

>  <ligand_id>  (214) 
64

>  <original_smiles>  (214) 
c1cc(-c2nc(C34CC5CC(CC(C5)C3)C4)no2)on1

>  <smiles>  (214) 
[H]c1noc(-c2nc(C34C([H])([H])C5([H])C([H])([H])C([H])(C([H])([H])C([H])(C5([H])[H])C3([H])[H])C4([H])[H])no2)c1[H]

$$$$
64:0:1
     RDKit          3D

 37 41  0  0  1  0  0  0  0  0999 V2000
   -0.2848   -8.2782    2.6026 C   0  0  0  0  0  0  0  0  0  0  0  0
    1.0940   -8.3499    2.2581 C   0  0  0  0  0  0  0  0  0  0  0  0
    1.3687   -7.0902    1.8135 C   0  0  0  0  0  0  0  0  0  0  0  0
    2.5756   -6.4720    1.3001 C   0  0  0  0  0  0  0  0  0  0  0  0
    2.7273   -5.2156    0.8942 N   0  0  0  0  0  0  0  0  0  0  0  0
    4.0566   -5.2006    0.5870 C   0  0  0  0  0  0  0  0  0  0  0  0
    4.7413   -3.9703    0.0446 C   0  0  2  0  0  0  0  0  0  0  0  0
    6.2537   -3.9757    0.4214 C   0  0  0  0  0  0  0  0  0  0  0  0
    6.9522   -2.7176   -0.1264 C   0  0  1  0  0  0  0  0  0  0  0  0
    6.7973   -2.6899   -1.6594 C   0  0  0  0  0  0  0  0  0  0  0  0
    5.3032   -2.6190   -2.0290 C   0  0  2  0  0  0  0  0  0  0  0  0
    4.6495   -1.3677   -1.4013 C   0  0  0  0  0  0  0  0  0  0  0  0
    4.8155   -1.4220    0.1312 C   0  0  2  0  0  0  0  0  0  0  0  0
    6.3103   -1.4629    0.5013 C   0  0  0  0  0  0  0  0  0  0  0  0
    4.1215   -2.6845    0.6736 C   0  0  0  0  0  0  0  0  0  0  0  0
    4.5976   -3.8779   -1.4963 C   0  0  0  0  0  0  0  0  0  0  0  0
    4.6700   -6.3806    0.6627 N   0  0  0  0  0  0  0  0  0  0  0  0
    3.6921   -7.2267    1.2003 O   0  0  0  0  0  0  0  0  0  0  0  0
    0.2605   -6.3096    1.8847 O   0  0  0  0  0  0  0  0  0  0  0  0
   -0.7900   -7.0735    2.4017 N   0  0  0  0  0  0  0  0  0  0  0  0
   -0.9318   -9.0502    2.9918 H   0  0  0  0  0  0  0  0  0  0  0  0
    1.7808   -9.1841    2.3063 H   0  0  0  0  0  0  0  0  0  0  0  0
    6.3749   -4.0372    1.5053 H   0  0  0  0  0  0  0  0  0  0  0  0
    6.7482   -4.8552    0.0061 H   0  0  0  0  0  0  0  0  0  0  0  0
    8.0087   -2.7575    0.1374 H   0  0  0  0  0  0  0  0  0  0  0  0
    7.3378   -1.8612   -2.0872 H   0  0  0  0  0  0  0  0  0  0  0  0
    7.2494   -3.5726   -2.1036 H   0  0  0  0  0  0  0  0  0  0  0  0
    5.1983   -2.5763   -3.1116 H   0  0  0  0  0  0  0  0  0  0  0  0
    5.0937   -0.4547   -1.7973 H   0  0  0  0  0  0  0  0  0  0  0  0
    3.5893   -1.3309   -1.6586 H   0  0  0  0  0  0  0  0  0  0  0  0
    4.3518   -0.5405    0.5755 H   0  0  0  0  0  0  0  0  0  0  0  0
    6.4256   -1.4859    1.5855 H   0  0  0  0  0  0  0  0  0  0  0  0
    6.8075   -0.5591    0.1536 H   0  0  0  0  0  0  0  0  0  0  0  0
    3.0559   -2.6218    0.4407 H   0  0  0  0  0  0  0  0  0  0  0  0
    4.1967   -2.7229    1.7622 H   0  0  0  0  0  0  0  0  0  0  0  0
    5.0141   -4.7689   -1.9691 H   0  0  0  0  0  0  0  0  0  0  0  0
    3.5430   -3.8533   -1.7749 H   0  0  0  0  0  0  0  0  0  0  0  0
  1 20  2  0
  1  2  1  0
  1 21  1  0
  2  3  2  0
  2 22  1  0
  3  4  1  0
  3 19  1  0
  4 18  1  0
  4  5  2  0
  5  6  1  0
  7  6  1  1
  6 17  2  0
  7 15  1  0
  7 16  1  0
  7  8  1  0
  8  9  1  0
  8 23  1  0
  8 24  1  0
  9 14  1  0
  9 10  1  0
  9 25  1  6
 10 11  1  0
 10 26  1  0
 10 27  1  0
 11 12  1  0
 11 16  1  0
 11 28  1  6
 12 13  1  0
 12 29  1  0
 12 30  1  0
 13 14  1  0
 13 15  1  0
 13 31  1  1
 14 32  1  0
 14 33  1  0
 15 34  1  0
 15 35  1  0
 16 36  1  0
 16 37  1  0
 17 18  1  0
 19 20  1  0
M  END
>  <i_m_ct_stereo_status>  (215) 
1

>  <s_m_source_file>  (215) 
/var/tmp/pbs.5083858.sched01/tmp7646clus/90uu10lt13.sdf

>  <i_m_source_file_index>  (215) 
3

>  <i_lp_mmshare_version>  (215) 
48012

>  <i_f3d_flags>  (215) 
0

>  <s_epik_input>  (215) 
bzFuW2NIXVtjSF1jMS1jMm5jKG5vMilDMzRbQ0gyXVtDQEBIXTVbQ0gyXVtDQEhdKFtDSDJdNClbQ0gyXVtDQEBIXShbQ0gyXTUpW0NIMl0z

>  <s_epik_cmdline>  (215) 
J2VwaWtfcHl0aG9uJywgJy1waHQnLCAnMi4wJywgJy1waCcsICc3LjAnLCAnLXRuJywgJzgnLCAnLW1hJywgJzIwMCcsICctaW1hZScsICc8aW5maWxlLm1hZT4nLCAnLW9tYWUnLCAnPG91dGZpbGUubWFlPic=

>  <r_lp_tautomer_probability>  (215) 
1

>  <r_epik_Ionization_Penalty>  (215) 
2.21484e-11

>  <r_epik_Ionization_Penalty_Charging>  (215) 
0

>  <r_epik_Ionization_Penalty_Neutral>  (215) 
2.21484e-11

>  <r_epik_State_Penalty>  (215) 
0

>  <r_epik_Charging_Adjusted_Penalty>  (215) 
0

>  <i_epik_Tot_Q>  (215) 
0

>  <i_epik_Tot_abs_Q>  (215) 
0

>  <s_lp_Force_Field>  (215) 
OPLS3e

>  <r_lp_Energy>  (215) 
7.17532

>  <b_lp_Chiralities_Consistent>  (215) 
1

>  <s_lp_Variant>  (215) 
64:0-1

>  <s_i_glide_gridfile>  (215) 
pfpi4k_grid

>  <i_i_glide_lignum>  (215) 
3

>  <i_i_glide_rotatable_bonds>  (215) 
2

>  <r_i_docking_score>  (215) 
-3.4886

>  <r_i_glide_ligand_efficiency>  (215) 
-0.17443

>  <r_i_glide_ligand_efficiency_sa>  (215) 
-0.473476

>  <r_i_glide_ligand_efficiency_ln>  (215) 
-0.873081

>  <r_i_glide_gscore>  (215) 
-3.4886

>  <r_i_glide_lipo>  (215) 
-0.281408

>  <r_i_glide_hbond>  (215) 
0

>  <r_i_glide_metal>  (215) 
-0

>  <r_i_glide_rewards>  (215) 
-1.60407

>  <r_i_glide_evdw>  (215) 
-27.9489

>  <r_i_glide_ecoul>  (215) 
-3.28045

>  <r_i_glide_erotb>  (215) 
0.486386

>  <r_i_glide_esite>  (215) 
-0.2

>  <r_i_glide_emodel>  (215) 
-38.4118

>  <r_i_glide_energy>  (215) 
-31.2293

>  <r_i_glide_einternal>  (215) 
0.123222

>  <r_i_glide_intrahb_reward>  (215) 
-0

>  <i_i_glide_confnum>  (215) 
1

>  <i_i_glide_posenum>  (215) 
4

>  <r_i_glide_eff_state_penalty>  (215) 
0

>  <ligand_id>  (215) 
64

>  <original_smiles>  (215) 
c1cc(-c2nc(C34CC5CC(CC(C5)C3)C4)no2)on1

>  <smiles>  (215) 
[H]c1noc(-c2nc(C34C([H])([H])C5([H])C([H])([H])C([H])(C([H])([H])C([H])(C5([H])[H])C3([H])[H])C4([H])[H])no2)c1[H]

$$$$
64:0:2
     RDKit          3D

 37 41  0  0  1  0  0  0  0  0999 V2000
    5.3378   -2.9978   -1.1500 C   0  0  0  0  0  0  0  0  0  0  0  0
    3.9976   -3.4518   -1.0046 C   0  0  0  0  0  0  0  0  0  0  0  0
    4.1129   -4.4818   -0.1122 C   0  0  0  0  0  0  0  0  0  0  0  0
    3.1349   -5.3840    0.4737 C   0  0  0  0  0  0  0  0  0  0  0  0
    3.3347   -6.3322    1.3766 N   0  0  0  0  0  0  0  0  0  0  0  0
    2.0751   -6.8131    1.5454 C   0  0  0  0  0  0  0  0  0  0  0  0
    1.7762   -7.9486    2.4852 C   0  0  2  0  0  0  0  0  0  0  0  0
    2.4400   -9.2611    1.9857 C   0  0  0  0  0  0  0  0  0  0  0  0
    2.1386  -10.4093    2.9699 C   0  0  1  0  0  0  0  0  0  0  0  0
    2.6965  -10.0535    4.3640 C   0  0  0  0  0  0  0  0  0  0  0  0
    2.0127   -8.7687    4.8766 C   0  0  2  0  0  0  0  0  0  0  0  0
    0.4873   -8.9737    4.9653 C   0  0  0  0  0  0  0  0  0  0  0  0
   -0.0556   -9.3361    3.5726 C   0  0  2  0  0  0  0  0  0  0  0  0
    0.6142  -10.6280    3.0643 C   0  0  0  0  0  0  0  0  0  0  0  0
    0.2426   -8.1869    2.6017 C   0  0  0  0  0  0  0  0  0  0  0  0
    2.3121   -7.6117    3.9056 C   0  0  0  0  0  0  0  0  0  0  0  0
    1.1383   -6.2583    0.7729 N   0  0  0  0  0  0  0  0  0  0  0  0
    1.8444   -5.2757    0.0714 O   0  0  0  0  0  0  0  0  0  0  0  0
    5.4114   -4.6401    0.2584 O   0  0  0  0  0  0  0  0  0  0  0  0
    6.1823   -3.6796   -0.4039 N   0  0  0  0  0  0  0  0  0  0  0  0
    5.7364   -2.2036   -1.7576 H   0  0  0  0  0  0  0  0  0  0  0  0
    3.0881   -3.0983   -1.4716 H   0  0  0  0  0  0  0  0  0  0  0  0
    2.0881   -9.5185    0.9859 H   0  0  0  0  0  0  0  0  0  0  0  0
    3.5199   -9.1346    1.8972 H   0  0  0  0  0  0  0  0  0  0  0  0
    2.6146  -11.3225    2.6130 H   0  0  0  0  0  0  0  0  0  0  0  0
    2.5322  -10.8743    5.0642 H   0  0  0  0  0  0  0  0  0  0  0  0
    3.7751   -9.9059    4.3053 H   0  0  0  0  0  0  0  0  0  0  0  0
    2.4022   -8.5216    5.8630 H   0  0  0  0  0  0  0  0  0  0  0  0
    0.2414   -9.7610    5.6781 H   0  0  0  0  0  0  0  0  0  0  0  0
    0.0109   -8.0605    5.3221 H   0  0  0  0  0  0  0  0  0  0  0  0
   -1.1334   -9.4790    3.6297 H   0  0  0  0  0  0  0  0  0  0  0  0
    0.2137  -10.9005    2.0873 H   0  0  0  0  0  0  0  0  0  0  0  0
    0.3880  -11.4560    3.7379 H   0  0  0  0  0  0  0  0  0  0  0  0
   -0.2604   -7.2805    2.9403 H   0  0  0  0  0  0  0  0  0  0  0  0
   -0.1796   -8.4364    1.6299 H   0  0  0  0  0  0  0  0  0  0  0  0
    3.3896   -7.4434    3.8764 H   0  0  0  0  0  0  0  0  0  0  0  0
    1.8677   -6.6846    4.2715 H   0  0  0  0  0  0  0  0  0  0  0  0
  1 20  2  0
  1  2  1  0
  1 21  1  0
  2  3  2  0
  2 22  1  0
  3  4  1  0
  3 19  1  0
  4 18  1  0
  4  5  2  0
  5  6  1  0
  7  6  1  6
  6 17  2  0
  7 15  1  0
  7 16  1  0
  7  8  1  0
  8  9  1  0
  8 23  1  0
  8 24  1  0
  9 14  1  0
  9 10  1  0
  9 25  1  6
 10 11  1  0
 10 26  1  0
 10 27  1  0
 11 12  1  0
 11 16  1  0
 11 28  1  1
 12 13  1  0
 12 29  1  0
 12 30  1  0
 13 14  1  0
 13 15  1  0
 13 31  1  1
 14 32  1  0
 14 33  1  0
 15 34  1  0
 15 35  1  0
 16 36  1  0
 16 37  1  0
 17 18  1  0
 19 20  1  0
M  END
>  <i_m_ct_stereo_status>  (216) 
1

>  <s_m_source_file>  (216) 
/var/tmp/pbs.5083858.sched01/tmp7646clus/90uu10lt13.sdf

>  <i_m_source_file_index>  (216) 
3

>  <i_lp_mmshare_version>  (216) 
48012

>  <i_f3d_flags>  (216) 
0

>  <s_epik_input>  (216) 
bzFuW2NIXVtjSF1jMS1jMm5jKG5vMilDMzRbQ0gyXVtDQEBIXTVbQ0gyXVtDQEhdKFtDSDJdNClbQ0gyXVtDQEBIXShbQ0gyXTUpW0NIMl0z

>  <s_epik_cmdline>  (216) 
J2VwaWtfcHl0aG9uJywgJy1waHQnLCAnMi4wJywgJy1waCcsICc3LjAnLCAnLXRuJywgJzgnLCAnLW1hJywgJzIwMCcsICctaW1hZScsICc8aW5maWxlLm1hZT4nLCAnLW9tYWUnLCAnPG91dGZpbGUubWFlPic=

>  <r_lp_tautomer_probability>  (216) 
1

>  <r_epik_Ionization_Penalty>  (216) 
2.21484e-11

>  <r_epik_Ionization_Penalty_Charging>  (216) 
0

>  <r_epik_Ionization_Penalty_Neutral>  (216) 
2.21484e-11

>  <r_epik_State_Penalty>  (216) 
0

>  <r_epik_Charging_Adjusted_Penalty>  (216) 
0

>  <i_epik_Tot_Q>  (216) 
0

>  <i_epik_Tot_abs_Q>  (216) 
0

>  <s_lp_Force_Field>  (216) 
OPLS3e

>  <r_lp_Energy>  (216) 
7.17532

>  <b_lp_Chiralities_Consistent>  (216) 
1

>  <s_lp_Variant>  (216) 
64:0-1

>  <s_i_glide_gridfile>  (216) 
pfpi4k_grid

>  <i_i_glide_lignum>  (216) 
3

>  <i_i_glide_rotatable_bonds>  (216) 
2

>  <r_i_docking_score>  (216) 
-3.41464

>  <r_i_glide_ligand_efficiency>  (216) 
-0.170732

>  <r_i_glide_ligand_efficiency_sa>  (216) 
-0.463437

>  <r_i_glide_ligand_efficiency_ln>  (216) 
-0.854571

>  <r_i_glide_gscore>  (216) 
-3.41464

>  <r_i_glide_lipo>  (216) 
-0.183643

>  <r_i_glide_hbond>  (216) 
0

>  <r_i_glide_metal>  (216) 
-0

>  <r_i_glide_rewards>  (216) 
-1.55922

>  <r_i_glide_evdw>  (216) 
-24.7567

>  <r_i_glide_ecoul>  (216) 
-4.69174

>  <r_i_glide_erotb>  (216) 
0.486386

>  <r_i_glide_esite>  (216) 
-0.216561

>  <r_i_glide_emodel>  (216) 
-36.4617

>  <r_i_glide_energy>  (216) 
-29.4485

>  <r_i_glide_einternal>  (216) 
0.231855

>  <r_i_glide_intrahb_reward>  (216) 
-0

>  <i_i_glide_confnum>  (216) 
3

>  <i_i_glide_posenum>  (216) 
16

>  <r_i_glide_eff_state_penalty>  (216) 
0

>  <ligand_id>  (216) 
64

>  <original_smiles>  (216) 
c1cc(-c2nc(C34CC5CC(CC(C5)C3)C4)no2)on1

>  <smiles>  (216) 
[H]c1noc(-c2nc(C34C([H])([H])C5([H])C([H])([H])C([H])(C([H])([H])C([H])(C5([H])[H])C3([H])[H])C4([H])[H])no2)c1[H]

$$$$
65:0:0
     RDKit          3D

 42 45  0  0  1  0  0  0  0  0999 V2000
    4.5435   -5.8565    0.3380 C   0  0  0  0  0  0  0  0  0  0  0  0
    3.5231   -4.9639    1.0973 C   0  0  0  0  0  0  0  0  0  0  0  0
    2.3942   -5.8998    1.5757 C   0  0  0  0  0  0  0  0  0  0  0  0
    4.1621   -4.2098    2.3460 C   0  0  1  0  0  0  0  0  0  0  0  0
    5.4699   -4.6227    2.7095 O   0  0  0  0  0  0  0  0  0  0  0  0
    3.9773   -2.7245    1.9757 C   0  0  2  0  0  0  0  0  0  0  0  0
    4.8425   -1.4434    1.7450 C   0  0  0  0  0  0  0  0  0  0  0  0
    5.1548   -1.1104    0.2284 C   0  0  0  0  0  0  0  0  0  0  0  0
    4.0932   -1.6187   -0.7842 C   0  0  2  0  0  0  0  0  0  0  0  0
    3.8282   -3.1518   -0.8338 C   0  0  1  0  0  0  0  0  0  0  0  0
    2.8776   -3.8107    0.2117 C   0  0  2  0  0  0  0  0  0  0  0  0
    2.6058   -2.7662    1.3025 C   0  0  0  0  0  0  0  0  0  0  0  0
    3.5928   -3.0325   -2.3518 C   0  0  2  0  0  0  0  0  0  0  0  0
    2.1710   -3.1815   -2.8986 C   0  0  0  0  0  0  0  0  0  0  0  0
    4.7844   -3.4133   -3.2301 C   0  0  0  0  0  0  0  0  0  0  0  0
    5.5426   -2.2775   -2.7308 O   0  0  0  0  0  0  0  0  0  0  0  0
    4.3064   -1.6672   -2.2996 C   0  0  2  0  0  0  0  0  0  0  0  0
    3.8203   -0.6230   -3.1245 O   0  0  0  0  0  0  0  0  0  0  0  0
    4.7494   -6.7748    0.8864 H   0  0  0  0  0  0  0  0  0  0  0  0
    5.5060   -5.3729    0.1822 H   0  0  0  0  0  0  0  0  0  0  0  0
    4.1682   -6.1496   -0.6408 H   0  0  0  0  0  0  0  0  0  0  0  0
    1.6120   -5.3618    2.1109 H   0  0  0  0  0  0  0  0  0  0  0  0
    2.7720   -6.6690    2.2487 H   0  0  0  0  0  0  0  0  0  0  0  0
    1.9239   -6.4049    0.7315 H   0  0  0  0  0  0  0  0  0  0  0  0
    3.5448   -4.3948    3.2278 H   0  0  0  0  0  0  0  0  0  0  0  0
    5.4255   -5.5234    2.9936 H   0  0  0  0  0  0  0  0  0  0  0  0
    4.7628   -3.0373    1.3040 H   0  0  0  0  0  0  0  0  0  0  0  0
    4.2879   -0.6004    2.1567 H   0  0  0  0  0  0  0  0  0  0  0  0
    5.7740   -1.4809    2.3177 H   0  0  0  0  0  0  0  0  0  0  0  0
    5.3041   -0.0367    0.1148 H   0  0  0  0  0  0  0  0  0  0  0  0
    6.1187   -1.5587   -0.0208 H   0  0  0  0  0  0  0  0  0  0  0  0
    3.1675   -1.0553   -0.6758 H   0  0  0  0  0  0  0  0  0  0  0  0
    4.8173   -3.5981   -0.7471 H   0  0  0  0  0  0  0  0  0  0  0  0
    1.9538   -4.1433   -0.2626 H   0  0  0  0  0  0  0  0  0  0  0  0
    1.8556   -3.1194    2.0115 H   0  0  0  0  0  0  0  0  0  0  0  0
    2.2264   -1.8045    0.9707 H   0  0  0  0  0  0  0  0  0  0  0  0
    2.0975   -2.8508   -3.9358 H   0  0  0  0  0  0  0  0  0  0  0  0
    1.4498   -2.6212   -2.3144 H   0  0  0  0  0  0  0  0  0  0  0  0
    1.8456   -4.2193   -2.8546 H   0  0  0  0  0  0  0  0  0  0  0  0
    5.2298   -4.3711   -2.9598 H   0  0  0  0  0  0  0  0  0  0  0  0
    4.5903   -3.3398   -4.3027 H   0  0  0  0  0  0  0  0  0  0  0  0
    2.9598   -0.4100   -2.8081 H   0  0  0  0  0  0  0  0  0  0  0  0
  1  2  1  0
  1 19  1  0
  1 20  1  0
  1 21  1  0
  2 11  1  0
  2  3  1  0
  2  4  1  0
  3 22  1  0
  3 23  1  0
  3 24  1  0
  4  5  1  0
  4  6  1  0
  4 25  1  1
  5 26  1  0
  6 12  1  0
  6  7  1  0
  6 27  1  1
  7  8  1  0
  7 28  1  0
  7 29  1  0
  8  9  1  0
  8 30  1  0
  8 31  1  0
  9 17  1  0
  9 10  1  0
  9 32  1  6
 10 11  1  0
 10 13  1  0
 10 33  1  6
 11 12  1  0
 11 34  1  6
 12 35  1  0
 12 36  1  0
 13 17  1  0
 13 14  1  6
 13 15  1  0
 14 37  1  0
 14 38  1  0
 14 39  1  0
 15 16  1  0
 15 40  1  0
 15 41  1  0
 16 17  1  0
 17 18  1  6
 18 42  1  0
M  END
>  <i_m_ct_stereo_status>  (217) 
1

>  <s_m_source_file>  (217) 
/var/tmp/pbs.5083858.sched01/tmp7646clus/90uu10lt13.sdf

>  <i_m_source_file_index>  (217) 
4

>  <i_lp_mmshare_version>  (217) 
48012

>  <i_f3d_flags>  (217) 
0

>  <s_epik_input>  (217) 
W0NIMl0xW0NAQEhdMkMoW0NIM10pKFtDSDNdKVtDQEBIXShbT0hdKVtDQEBIXTFbQ0gyXVtDSDJdW0NASF0oW0NAQEhdMltDQF0zNFtDSDNdKVtDQEBdNChbT0hdKU9bQ0gyXTM=

>  <s_epik_cmdline>  (217) 
J2VwaWtfcHl0aG9uJywgJy1waHQnLCAnMi4wJywgJy1waCcsICc3LjAnLCAnLXRuJywgJzgnLCAnLW1hJywgJzIwMCcsICctaW1hZScsICc8aW5maWxlLm1hZT4nLCAnLW9tYWUnLCAnPG91dGZpbGUubWFlPic=

>  <r_lp_tautomer_probability>  (217) 
1

>  <r_epik_Ionization_Penalty>  (217) 
1.67024e-06

>  <r_epik_Ionization_Penalty_Charging>  (217) 
0

>  <r_epik_Ionization_Penalty_Neutral>  (217) 
1.67024e-06

>  <r_epik_State_Penalty>  (217) 
0

>  <r_epik_Charging_Adjusted_Penalty>  (217) 
0

>  <i_epik_Tot_Q>  (217) 
0

>  <i_epik_Tot_abs_Q>  (217) 
0

>  <s_lp_Force_Field>  (217) 
OPLS3e

>  <r_lp_Energy>  (217) 
113.946

>  <b_lp_Chiralities_Consistent>  (217) 
1

>  <s_lp_Variant>  (217) 
65:0-1

>  <s_i_glide_gridfile>  (217) 
pfpi4k_grid

>  <i_i_glide_lignum>  (217) 
4

>  <i_i_glide_rotatable_bonds>  (217) 
2

>  <r_i_docking_score>  (217) 
-3.76697

>  <r_i_glide_ligand_efficiency>  (217) 
-0.209276

>  <r_i_glide_ligand_efficiency_sa>  (217) 
-0.548458

>  <r_i_glide_ligand_efficiency_ln>  (217) 
-0.968279

>  <r_i_glide_gscore>  (217) 
-3.76697

>  <r_i_glide_lipo>  (217) 
-0.631787

>  <r_i_glide_hbond>  (217) 
0

>  <r_i_glide_metal>  (217) 
-0

>  <r_i_glide_rewards>  (217) 
-1.68853

>  <r_i_glide_evdw>  (217) 
-18.7847

>  <r_i_glide_ecoul>  (217) 
-3.21979

>  <r_i_glide_erotb>  (217) 
0

>  <r_i_glide_esite>  (217) 
-0.0244472

>  <r_i_glide_emodel>  (217) 
-26.7743

>  <r_i_glide_energy>  (217) 
-22.0045

>  <r_i_glide_einternal>  (217) 
0.898545

>  <r_i_glide_intrahb_reward>  (217) 
-0

>  <i_i_glide_confnum>  (217) 
1

>  <i_i_glide_posenum>  (217) 
8

>  <r_i_glide_eff_state_penalty>  (217) 
0

>  <ligand_id>  (217) 
65

>  <original_smiles>  (217) 
CC1(C)C(O)C2CCC3C(C1C2)C1(C)COC31O

>  <smiles>  (217) 
[H]OC1([H])C2([H])C([H])([H])C([H])([H])C3([H])C4(O[H])OC([H])([H])C4(C([H])([H])[H])C3([H])C([H])(C2([H])[H])C1(C([H])([H])[H])C([H])([H])[H]

$$$$
65:0:1
     RDKit          3D

 42 45  0  0  1  0  0  0  0  0999 V2000
    4.8421   -6.2157    0.1338 C   0  0  0  0  0  0  0  0  0  0  0  0
    4.0855   -5.2778    1.1101 C   0  0  0  0  0  0  0  0  0  0  0  0
    3.0679   -6.1622    1.8581 C   0  0  0  0  0  0  0  0  0  0  0  0
    5.0450   -4.5629    2.1575 C   0  0  1  0  0  0  0  0  0  0  0  0
    6.3806   -5.0474    2.2185 O   0  0  0  0  0  0  0  0  0  0  0  0
    4.8410   -3.0689    1.8311 C   0  0  2  0  0  0  0  0  0  0  0  0
    5.6785   -1.8278    1.3826 C   0  0  0  0  0  0  0  0  0  0  0  0
    5.6304   -1.5052   -0.1671 C   0  0  0  0  0  0  0  0  0  0  0  0
    4.3366   -1.9648   -0.8939 C   0  0  2  0  0  0  0  0  0  0  0  0
    3.9931   -3.4817   -0.8622 C   0  0  1  0  0  0  0  0  0  0  0  0
    3.2932   -4.0953    0.3977 C   0  0  2  0  0  0  0  0  0  0  0  0
    3.3462   -3.0414    1.5126 C   0  0  0  0  0  0  0  0  0  0  0  0
    3.4089   -3.3424   -2.2793 C   0  0  2  0  0  0  0  0  0  0  0  0
    1.8957   -3.4166   -2.4593 C   0  0  0  0  0  0  0  0  0  0  0  0
    4.3238   -3.7721   -3.4308 C   0  0  0  0  0  0  0  0  0  0  0  0
    5.2195   -2.6575   -3.1747 O   0  0  0  0  0  0  0  0  0  0  0  0
    4.1708   -2.0050   -2.4209 C   0  0  2  0  0  0  0  0  0  0  0  0
    3.5309   -0.9352   -3.0868 O   0  0  0  0  0  0  0  0  0  0  0  0
    5.1392   -7.1371    0.6321 H   0  0  0  0  0  0  0  0  0  0  0  0
    5.7540   -5.7788   -0.2651 H   0  0  0  0  0  0  0  0  0  0  0  0
    4.2146   -6.4964   -0.7109 H   0  0  0  0  0  0  0  0  0  0  0  0
    2.4630   -5.5902    2.5625 H   0  0  0  0  0  0  0  0  0  0  0  0
    3.5645   -6.9483    2.4268 H   0  0  0  0  0  0  0  0  0  0  0  0
    2.3835   -6.6435    1.1597 H   0  0  0  0  0  0  0  0  0  0  0  0
    4.6461   -4.7186    3.1629 H   0  0  0  0  0  0  0  0  0  0  0  0
    6.7795   -4.9728    1.3652 H   0  0  0  0  0  0  0  0  0  0  0  0
    5.4207   -3.4168    0.9900 H   0  0  0  0  0  0  0  0  0  0  0  0
    5.2842   -0.9595    1.9117 H   0  0  0  0  0  0  0  0  0  0  0  0
    6.7195   -1.9105    1.7031 H   0  0  0  0  0  0  0  0  0  0  0  0
    5.7919   -0.4370   -0.3173 H   0  0  0  0  0  0  0  0  0  0  0  0
    6.4851   -1.9974   -0.6343 H   0  0  0  0  0  0  0  0  0  0  0  0
    3.4910   -1.3579   -0.5721 H   0  0  0  0  0  0  0  0  0  0  0  0
    4.9481   -3.9737   -1.0160 H   0  0  0  0  0  0  0  0  0  0  0  0
    2.2659   -4.3845    0.1805 H   0  0  0  0  0  0  0  0  0  0  0  0
    2.7757   -3.3608    2.3866 H   0  0  0  0  0  0  0  0  0  0  0  0
    2.9432   -2.0612    1.2722 H   0  0  0  0  0  0  0  0  0  0  0  0
    1.5845   -3.0588   -3.4449 H   0  0  0  0  0  0  0  0  0  0  0  0
    1.3993   -2.8243   -1.7051 H   0  0  0  0  0  0  0  0  0  0  0  0
    1.5112   -4.4262   -2.3247 H   0  0  0  0  0  0  0  0  0  0  0  0
    4.7982   -4.7359   -3.2624 H   0  0  0  0  0  0  0  0  0  0  0  0
    3.8503   -3.7046   -4.4123 H   0  0  0  0  0  0  0  0  0  0  0  0
    2.7377   -0.7608   -2.6019 H   0  0  0  0  0  0  0  0  0  0  0  0
  1  2  1  0
  1 19  1  0
  1 20  1  0
  1 21  1  0
  2 11  1  0
  2  3  1  0
  2  4  1  0
  3 22  1  0
  3 23  1  0
  3 24  1  0
  4  5  1  0
  4  6  1  0
  4 25  1  1
  5 26  1  0
  6 12  1  0
  6  7  1  0
  6 27  1  1
  7  8  1  0
  7 28  1  0
  7 29  1  0
  8  9  1  0
  8 30  1  0
  8 31  1  0
  9 17  1  0
  9 10  1  0
  9 32  1  1
 10 11  1  0
 10 13  1  0
 10 33  1  6
 11 12  1  0
 11 34  1  6
 12 35  1  0
 12 36  1  0
 13 17  1  0
 13 14  1  1
 13 15  1  0
 14 37  1  0
 14 38  1  0
 14 39  1  0
 15 16  1  0
 15 40  1  0
 15 41  1  0
 16 17  1  0
 17 18  1  6
 18 42  1  0
M  END
>  <i_m_ct_stereo_status>  (218) 
1

>  <s_m_source_file>  (218) 
/var/tmp/pbs.5083858.sched01/tmp7646clus/90uu10lt13.sdf

>  <i_m_source_file_index>  (218) 
4

>  <i_lp_mmshare_version>  (218) 
48012

>  <i_f3d_flags>  (218) 
0

>  <s_epik_input>  (218) 
W0NIMl0xW0NAQEhdMkMoW0NIM10pKFtDSDNdKVtDQEBIXShbT0hdKVtDQEBIXTFbQ0gyXVtDSDJdW0NASF0oW0NAQEhdMltDQF0zNFtDSDNdKVtDQEBdNChbT0hdKU9bQ0gyXTM=

>  <s_epik_cmdline>  (218) 
J2VwaWtfcHl0aG9uJywgJy1waHQnLCAnMi4wJywgJy1waCcsICc3LjAnLCAnLXRuJywgJzgnLCAnLW1hJywgJzIwMCcsICctaW1hZScsICc8aW5maWxlLm1hZT4nLCAnLW9tYWUnLCAnPG91dGZpbGUubWFlPic=

>  <r_lp_tautomer_probability>  (218) 
1

>  <r_epik_Ionization_Penalty>  (218) 
1.67024e-06

>  <r_epik_Ionization_Penalty_Charging>  (218) 
0

>  <r_epik_Ionization_Penalty_Neutral>  (218) 
1.67024e-06

>  <r_epik_State_Penalty>  (218) 
0

>  <r_epik_Charging_Adjusted_Penalty>  (218) 
0

>  <i_epik_Tot_Q>  (218) 
0

>  <i_epik_Tot_abs_Q>  (218) 
0

>  <s_lp_Force_Field>  (218) 
OPLS3e

>  <r_lp_Energy>  (218) 
113.946

>  <b_lp_Chiralities_Consistent>  (218) 
1

>  <s_lp_Variant>  (218) 
65:0-1

>  <s_i_glide_gridfile>  (218) 
pfpi4k_grid

>  <i_i_glide_lignum>  (218) 
4

>  <i_i_glide_rotatable_bonds>  (218) 
2

>  <r_i_docking_score>  (218) 
-3.5583

>  <r_i_glide_ligand_efficiency>  (218) 
-0.197683

>  <r_i_glide_ligand_efficiency_sa>  (218) 
-0.518077

>  <r_i_glide_ligand_efficiency_ln>  (218) 
-0.914643

>  <r_i_glide_gscore>  (218) 
-3.5583

>  <r_i_glide_lipo>  (218) 
-0.530394

>  <r_i_glide_hbond>  (218) 
0

>  <r_i_glide_metal>  (218) 
-0

>  <r_i_glide_rewards>  (218) 
-1.6909

>  <r_i_glide_evdw>  (218) 
-17.5647

>  <r_i_glide_ecoul>  (218) 
-3.05851

>  <r_i_glide_erotb>  (218) 
0

>  <r_i_glide_esite>  (218) 
0

>  <r_i_glide_emodel>  (218) 
-25.3118

>  <r_i_glide_energy>  (218) 
-20.6232

>  <r_i_glide_einternal>  (218) 
0.535949

>  <r_i_glide_intrahb_reward>  (218) 
-0

>  <i_i_glide_confnum>  (218) 
1

>  <i_i_glide_posenum>  (218) 
1

>  <r_i_glide_eff_state_penalty>  (218) 
0

>  <ligand_id>  (218) 
65

>  <original_smiles>  (218) 
CC1(C)C(O)C2CCC3C(C1C2)C1(C)COC31O

>  <smiles>  (218) 
[H]OC1([H])C2([H])C([H])([H])C([H])([H])C3([H])C4(O[H])OC([H])([H])C4(C([H])([H])[H])C3([H])C([H])(C2([H])[H])C1(C([H])([H])[H])C([H])([H])[H]

$$$$
66:0:0
     RDKit          3D

107115  0  0  1  0  0  0  0  0999 V2000
    2.3431    4.8632    2.6827 C   0  0  0  0  0  0  0  0  0  0  0  0
    1.6694    3.7891    3.5243 C   0  0  0  0  0  0  0  0  0  0  0  0
    0.7806    4.0563    4.5031 C   0  0  0  0  0  0  0  0  0  0  0  0
    0.3467    5.4613    4.9066 C   0  0  0  0  0  0  0  0  0  0  0  0
    0.1065    2.9416    5.2278 C   0  0  0  0  0  0  0  0  0  0  0  0
   -0.8271    3.1172    6.0069 O   0  0  0  0  0  0  0  0  0  0  0  0
    0.5580    1.6827    4.9381 O   0  0  0  0  0  0  0  0  0  0  0  0
    1.8499    1.4054    4.3820 C   0  0  2  0  0  0  0  0  0  0  0  0
    2.0565    2.3636    3.1701 C   0  0  0  0  0  0  0  0  0  0  0  0
    1.8568   -0.0694    3.9117 C   0  0  0  0  0  0  0  0  0  0  0  0
    1.1747   -1.0651    4.8946 C   0  0  1  0  0  0  0  0  0  0  0  0
   -0.2857   -1.3012    4.3784 C   0  0  0  0  0  0  0  0  0  0  0  0
    2.0577   -2.3385    5.2649 C   0  0  2  0  0  0  0  0  0  0  0  0
    2.3254   -3.0042    3.8715 C   0  0  0  0  0  0  0  0  0  0  0  0
    1.0996   -3.2243    6.2268 C   0  0  1  0  0  0  0  0  0  0  0  0
    1.0107   -4.5975    5.7967 O   0  0  0  0  0  0  0  0  0  0  0  0
   -0.1501   -5.3086    5.7768 C   0  0  0  0  0  0  0  0  0  0  0  0
   -1.1276   -5.0338    6.4835 O   0  0  0  0  0  0  0  0  0  0  0  0
   -0.1512   -6.4280    4.7920 C   0  0  0  0  0  0  0  0  0  0  0  0
   -1.3641   -7.0572    4.4399 C   0  0  0  0  0  0  0  0  0  0  0  0
   -1.3928   -8.1030    3.5024 C   0  0  0  0  0  0  0  0  0  0  0  0
   -0.2014   -8.5266    2.8897 C   0  0  0  0  0  0  0  0  0  0  0  0
    1.0120   -7.8995    3.2170 C   0  0  0  0  0  0  0  0  0  0  0  0
    1.0411   -6.8596    4.1619 C   0  0  0  0  0  0  0  0  0  0  0  0
    1.0293   -2.9378    7.8062 C   0  0  1  0  0  0  0  0  0  0  0  0
   -0.3184   -3.0840    8.2165 O   0  0  0  0  0  0  0  0  0  0  0  0
    2.0162   -3.5561    8.9019 C   0  0  2  0  0  0  0  0  0  0  0  0
    1.2606   -3.9633   10.1964 C   0  0  0  0  0  0  0  0  0  0  0  0
    2.8899   -2.5373    9.4592 O   0  0  0  0  0  0  0  0  0  0  0  0
    4.2912   -2.8039    9.3125 C   0  0  2  0  0  0  0  0  0  0  0  0
    4.6785   -3.5655   10.6108 C   0  0  0  0  0  0  0  0  0  0  0  0
    5.2760   -1.5326    9.4119 C   0  0  0  0  0  0  0  0  0  0  0  0
    4.8012   -0.0456    9.2047 C   0  0  0  0  0  0  0  0  0  0  0  0
    4.9044    0.4370    7.7239 C   0  0  2  0  0  0  0  0  0  0  0  0
    6.2517    1.1205    7.4528 C   0  0  0  0  0  0  0  0  0  0  0  0
    3.9136    1.3756    7.5771 O   0  0  0  0  0  0  0  0  0  0  0  0
    2.8859    0.7688    6.8014 C   0  0  1  0  0  0  0  0  0  0  0  0
    2.9373    1.6038    5.4695 C   0  0  1  0  0  0  0  0  0  0  0  0
    4.2186    1.6395    4.8686 O   0  0  0  0  0  0  0  0  0  0  0  0
    3.1461   -0.7845    7.0000 C   0  0  2  0  0  0  0  0  0  0  0  0
    4.5458   -0.7324    7.0163 N   0  0  0  0  0  0  0  0  0  0  0  0
    4.4649   -0.9863    5.5481 O   0  0  0  0  0  0  0  0  0  0  0  0
    3.4488   -1.9710    6.0279 C   0  0  2  0  0  0  0  0  0  0  0  0
    4.3993   -3.2761    6.5124 C   0  0  0  0  0  0  0  0  0  0  0  0
    4.3039   -4.5122    5.5630 C   0  0  0  0  0  0  0  0  0  0  0  0
    5.9550   -3.0696    6.2912 C   0  0  0  0  0  0  0  0  0  0  0  0
    4.2691   -3.7757    8.0492 C   0  0  2  0  0  0  0  0  0  0  0  0
    2.9836   -4.6094    8.3037 C   0  0  1  0  0  0  0  0  0  0  0  0
    3.1595   -6.0210    8.9734 C   0  0  0  0  0  0  0  0  0  0  0  0
    2.1055   -6.9752    8.6712 N   0  0  0  0  0  0  0  0  0  0  0  0
    2.0963   -8.0724    7.8963 C   0  0  0  0  0  0  0  0  0  0  0  0
    0.9402   -8.7112    7.9506 N   0  0  0  0  0  0  0  0  0  0  0  0
    0.2048   -7.9529    8.8635 N   0  0  0  0  0  0  0  0  0  0  0  0
    0.8942   -6.9316    9.2950 N   0  0  0  0  0  0  0  0  0  0  0  0
    2.3247    4.5585    1.6344 H   0  0  0  0  0  0  0  0  0  0  0  0
    3.3892    4.9781    2.9749 H   0  0  0  0  0  0  0  0  0  0  0  0
    1.8422    5.8291    2.7743 H   0  0  0  0  0  0  0  0  0  0  0  0
    0.1998    5.5351    5.9918 H   0  0  0  0  0  0  0  0  0  0  0  0
   -0.6017    5.6868    4.4199 H   0  0  0  0  0  0  0  0  0  0  0  0
    1.0740    6.2140    4.5920 H   0  0  0  0  0  0  0  0  0  0  0  0
    1.4540    2.0571    2.3119 H   0  0  0  0  0  0  0  0  0  0  0  0
    3.0821    2.3421    2.8066 H   0  0  0  0  0  0  0  0  0  0  0  0
    1.3431   -0.1344    2.9516 H   0  0  0  0  0  0  0  0  0  0  0  0
    2.8787   -0.3716    3.6756 H   0  0  0  0  0  0  0  0  0  0  0  0
    0.9679   -0.5609    5.8302 H   0  0  0  0  0  0  0  0  0  0  0  0
   -0.3822   -2.1377    3.6864 H   0  0  0  0  0  0  0  0  0  0  0  0
   -0.6793   -0.4214    3.8649 H   0  0  0  0  0  0  0  0  0  0  0  0
   -0.9982   -1.4626    5.1900 H   0  0  0  0  0  0  0  0  0  0  0  0
    2.3400   -4.0889    3.8587 H   0  0  0  0  0  0  0  0  0  0  0  0
    3.2785   -2.6736    3.4595 H   0  0  0  0  0  0  0  0  0  0  0  0
    1.5812   -2.7525    3.1191 H   0  0  0  0  0  0  0  0  0  0  0  0
    0.0984   -2.9276    5.9540 H   0  0  0  0  0  0  0  0  0  0  0  0
   -2.2942   -6.7328    4.8834 H   0  0  0  0  0  0  0  0  0  0  0  0
   -2.3241   -8.5913    3.2555 H   0  0  0  0  0  0  0  0  0  0  0  0
   -0.2157   -9.3393    2.1766 H   0  0  0  0  0  0  0  0  0  0  0  0
    1.9293   -8.2270    2.7536 H   0  0  0  0  0  0  0  0  0  0  0  0
    1.9834   -6.3990    4.3950 H   0  0  0  0  0  0  0  0  0  0  0  0
    1.0479   -1.8653    7.9201 H   0  0  0  0  0  0  0  0  0  0  0  0
   -0.5400   -4.0049    8.1421 H   0  0  0  0  0  0  0  0  0  0  0  0
    0.4878   -4.7080   10.0239 H   0  0  0  0  0  0  0  0  0  0  0  0
    0.7572   -3.0940   10.6320 H   0  0  0  0  0  0  0  0  0  0  0  0
    1.9341   -4.3395   10.9655 H   0  0  0  0  0  0  0  0  0  0  0  0
    5.7340   -3.8341   10.5991 H   0  0  0  0  0  0  0  0  0  0  0  0
    4.1254   -4.4610   10.8164 H   0  0  0  0  0  0  0  0  0  0  0  0
    4.5043   -2.9406   11.4881 H   0  0  0  0  0  0  0  0  0  0  0  0
    5.6268   -1.4604   10.4405 H   0  0  0  0  0  0  0  0  0  0  0  0
    6.2112   -1.7278    8.8894 H   0  0  0  0  0  0  0  0  0  0  0  0
    3.7725    0.0674    9.5378 H   0  0  0  0  0  0  0  0  0  0  0  0
    5.3894    0.6456    9.8102 H   0  0  0  0  0  0  0  0  0  0  0  0
    7.0972    0.4644    7.6702 H   0  0  0  0  0  0  0  0  0  0  0  0
    6.3331    1.9945    8.1039 H   0  0  0  0  0  0  0  0  0  0  0  0
    6.3398    1.4929    6.4246 H   0  0  0  0  0  0  0  0  0  0  0  0
    1.9369    1.0117    7.2745 H   0  0  0  0  0  0  0  0  0  0  0  0
    2.8193    2.6193    5.8239 H   0  0  0  0  0  0  0  0  0  0  0  0
    4.1757    2.1887    4.0990 H   0  0  0  0  0  0  0  0  0  0  0  0
    2.7984   -1.0729    7.9662 H   0  0  0  0  0  0  0  0  0  0  0  0
    4.9312   -5.3338    5.9115 H   0  0  0  0  0  0  0  0  0  0  0  0
    4.6354   -4.2889    4.5472 H   0  0  0  0  0  0  0  0  0  0  0  0
    3.3312   -4.9595    5.4743 H   0  0  0  0  0  0  0  0  0  0  0  0
    6.5236   -3.9761    6.5117 H   0  0  0  0  0  0  0  0  0  0  0  0
    6.4331   -2.3173    6.9043 H   0  0  0  0  0  0  0  0  0  0  0  0
    6.1863   -2.8074    5.2594 H   0  0  0  0  0  0  0  0  0  0  0  0
    5.1159   -4.4467    8.1955 H   0  0  0  0  0  0  0  0  0  0  0  0
    2.5996   -4.9351    7.3666 H   0  0  0  0  0  0  0  0  0  0  0  0
    4.0880   -6.4591    8.6081 H   0  0  0  0  0  0  0  0  0  0  0  0
    3.2403   -6.0131   10.0547 H   0  0  0  0  0  0  0  0  0  0  0  0
    2.9506   -8.4189    7.3245 H   0  0  0  0  0  0  0  0  0  0  0  0
  1  2  1  0
  1 55  1  0
  1 56  1  0
  1 57  1  0
  2  9  1  0
  2  3  2  0
  3  4  1  0
  3  5  1  0
  4 58  1  0
  4 59  1  0
  4 60  1  0
  5  6  2  0
  5  7  1  0
  8  7  1  1
  8 38  1  0
  8  9  1  0
  8 10  1  0
  9 61  1  0
  9 62  1  0
 10 11  1  0
 10 63  1  0
 10 64  1  0
 11 12  1  0
 11 13  1  0
 11 65  1  1
 12 66  1  0
 12 67  1  0
 12 68  1  0
 13 43  1  0
 13 14  1  6
 13 15  1  0
 14 69  1  0
 14 70  1  0
 14 71  1  0
 15 16  1  0
 15 25  1  0
 15 72  1  6
 16 17  1  0
 17 18  2  0
 17 19  1  0
 19 24  1  0
 19 20  2  0
 20 21  1  0
 20 73  1  0
 21 22  2  0
 21 74  1  0
 22 23  1  0
 22 75  1  0
 23 24  2  0
 23 76  1  0
 24 77  1  0
 25 26  1  0
 25 27  1  0
 25 78  1  6
 26 79  1  0
 27 48  1  0
 27 28  1  1
 27 29  1  0
 28 80  1  0
 28 81  1  0
 28 82  1  0
 29 30  1  0
 30 47  1  0
 30 31  1  1
 30 32  1  0
 31 83  1  0
 31 84  1  0
 31 85  1  0
 32 33  1  0
 32 86  1  0
 32 87  1  0
 33 34  1  0
 33 88  1  0
 33 89  1  0
 34 41  1  0
 34 35  1  6
 34 36  1  0
 35 90  1  0
 35 91  1  0
 35 92  1  0
 36 37  1  0
 37 38  1  0
 37 40  1  0
 37 93  1  1
 38 39  1  0
 38 94  1  1
 39 95  1  0
 40 43  1  0
 40 41  1  0
 40 96  1  1
 41 42  1  0
 43 42  1  6
 43 44  1  0
 44 45  1  0
 44 46  1  0
 44 47  1  0
 45 97  1  0
 45 98  1  0
 45 99  1  0
 46100  1  0
 46101  1  0
 46102  1  0
 47 48  1  0
 47103  1  1
 48 49  1  0
 48104  1  6
 49 50  1  0
 49105  1  0
 49106  1  0
 50 54  1  0
 50 51  1  0
 51 52  2  0
 51107  1  0
 52 53  1  0
 53 54  2  0
M  END
>  <i_m_ct_stereo_status>  (219) 
1

>  <s_m_source_file>  (219) 
/var/tmp/pbs.5083858.sched01/tmp7646clus/90uu10lt13.sdf

>  <i_m_source_file_index>  (219) 
5

>  <i_lp_mmshare_version>  (219) 
48012

>  <i_f3d_flags>  (219) 
0

>  <s_epik_input>  (219) 
W0NIM11DKFtDSDJdMSk9QyhbQ0gzXSlDKD1PKU9bQ0BAXTEyW0NIMl1bQ0BASF0oW0NIM10pW0NAQF0zKFtDSDNdKVtDQF00NVtDQEBIXTZbQ0BIXShbQ0BIXTJbT0hdKU9bQ0BdKFtDSDNdKShONk80KVtDSDJdW0NIMl1bQ0BdNyhbQ0gzXSlbQ0BIXShDNShbQ0gzXSlbQ0gzXSlbQ0BASF0oW0NIMl1uOFtjSF1ubm44KVtDQF0oTzcpKFtDSDNdKVtDQEhdKFtPSF0pW0NAQEhdM09DKD1PKWM5W2NIXVtjSF1bY0hdW2NIXVtjSF05

>  <s_epik_cmdline>  (219) 
J2VwaWtfcHl0aG9uJywgJy1waHQnLCAnMi4wJywgJy1waCcsICc3LjAnLCAnLXRuJywgJzgnLCAnLW1hJywgJzIwMCcsICctaW1hZScsICc8aW5maWxlLm1hZT4nLCAnLW9tYWUnLCAnPG91dGZpbGUubWFlPic=

>  <r_lp_tautomer_probability>  (219) 
1

>  <r_epik_Ionization_Penalty>  (219) 
0.000261786

>  <r_epik_Ionization_Penalty_Charging>  (219) 
0

>  <r_epik_Ionization_Penalty_Neutral>  (219) 
0.000261786

>  <r_epik_State_Penalty>  (219) 
0

>  <r_epik_Charging_Adjusted_Penalty>  (219) 
0

>  <i_epik_Tot_Q>  (219) 
0

>  <i_epik_Tot_abs_Q>  (219) 
0

>  <s_epik_Chemistry_Notes>  (219) 
This compound has an ester and may undergo hydrolysis at high or low pH. This compound has a N-S or N-O group and may undergo hydrolysis at high or low pH.

>  <s_lp_Force_Field>  (219) 
OPLS3e

>  <r_lp_Energy>  (219) 
201.317

>  <b_lp_Chiralities_Consistent>  (219) 
1

>  <s_lp_Variant>  (219) 
66:0-1

>  <s_i_glide_gridfile>  (219) 
pfpi4k_grid

>  <i_i_glide_lignum>  (219) 
5

>  <i_i_glide_rotatable_bonds>  (219) 
7

>  <r_i_docking_score>  (219) 
-3.18838

>  <r_i_glide_ligand_efficiency>  (219) 
-0.059044

>  <r_i_glide_ligand_efficiency_sa>  (219) 
-0.223172

>  <r_i_glide_ligand_efficiency_ln>  (219) 
-0.639083

>  <r_i_glide_gscore>  (219) 
-3.18838

>  <r_i_glide_lipo>  (219) 
-0.035589

>  <r_i_glide_hbond>  (219) 
0

>  <r_i_glide_metal>  (219) 
-0

>  <r_i_glide_rewards>  (219) 
-0.5

>  <r_i_glide_evdw>  (219) 
-31.2659

>  <r_i_glide_ecoul>  (219) 
-6.38232

>  <r_i_glide_erotb>  (219) 
0.00164059

>  <r_i_glide_esite>  (219) 
-0.133784

>  <r_i_glide_emodel>  (219) 
-46.2732

>  <r_i_glide_energy>  (219) 
-37.6483

>  <r_i_glide_einternal>  (219) 
5.42615

>  <r_i_glide_intrahb_reward>  (219) 
-0.5

>  <i_i_glide_confnum>  (219) 
3

>  <i_i_glide_posenum>  (219) 
35

>  <r_i_glide_eff_state_penalty>  (219) 
0

>  <ligand_id>  (219) 
66

>  <original_smiles>  (219) 
CC1=C(C)C(=O)OC2(C1)CC(C)C1(C)C(OC(=O)c3ccccc3)C(O)C3(C)OC4(C)CCC5(C)OC(C2O)C2N5OC21C(C)(C)C4C3Cn1cnnn1

>  <smiles>  (219) 
[H]OC1([H])C2([H])OC3(C([H])([H])[H])N4OC5(C42[H])C(C([H])([H])[H])(C([H])([H])[H])C2([H])C([H])(C([H])([H])n4nnnc4[H])C(C([H])([H])[H])(OC2(C([H])([H])[H])C([H])([H])C3([H])[H])C([H])(O[H])C([H])(OC(=O)c2c([H])c([H])c([H])c([H])c2[H])C5(C([H])([H])[H])C([H])(C([H])([H])[H])C([H])([H])C12OC(=O)C(C([H])([H])[H])=C(C([H])([H])[H])C2([H])[H]

$$$$
66:0:1
     RDKit          3D

107115  0  0  1  0  0  0  0  0999 V2000
    2.4655    4.6937    2.6926 C   0  0  0  0  0  0  0  0  0  0  0  0
    1.7772    3.6225    3.5214 C   0  0  0  0  0  0  0  0  0  0  0  0
    0.8773    3.8991    4.4889 C   0  0  0  0  0  0  0  0  0  0  0  0
    0.4531    5.3101    4.8773 C   0  0  0  0  0  0  0  0  0  0  0  0
    0.1882    2.7934    5.2098 C   0  0  0  0  0  0  0  0  0  0  0  0
   -0.7499    2.9809    5.9816 O   0  0  0  0  0  0  0  0  0  0  0  0
    0.6314    1.5298    4.9285 O   0  0  0  0  0  0  0  0  0  0  0  0
    1.9262    1.2404    4.3853 C   0  0  2  0  0  0  0  0  0  0  0  0
    2.1587    2.1932    3.1771 C   0  0  0  0  0  0  0  0  0  0  0  0
    1.9226   -0.2351    3.9174 C   0  0  0  0  0  0  0  0  0  0  0  0
    1.2243   -1.2208    4.8988 C   0  0  1  0  0  0  0  0  0  0  0  0
   -0.2342   -1.4444    4.3702 C   0  0  0  0  0  0  0  0  0  0  0  0
    2.0933   -2.5017    5.2829 C   0  0  2  0  0  0  0  0  0  0  0  0
    2.3673   -3.1752    3.8929 C   0  0  0  0  0  0  0  0  0  0  0  0
    1.1164   -3.3756    6.2372 C   0  0  1  0  0  0  0  0  0  0  0  0
    1.0206   -4.7499    5.8117 O   0  0  0  0  0  0  0  0  0  0  0  0
   -0.1484   -5.4498    5.7900 C   0  0  0  0  0  0  0  0  0  0  0  0
   -1.1275   -5.1577    6.4823 O   0  0  0  0  0  0  0  0  0  0  0  0
   -0.1455   -6.5836    4.8169 C   0  0  0  0  0  0  0  0  0  0  0  0
   -1.3596   -7.1979    4.4528 C   0  0  0  0  0  0  0  0  0  0  0  0
   -1.3889   -8.2552    3.5281 C   0  0  0  0  0  0  0  0  0  0  0  0
   -0.1925   -8.7050    2.9443 C   0  0  0  0  0  0  0  0  0  0  0  0
    1.0220   -8.0926    3.2869 C   0  0  0  0  0  0  0  0  0  0  0  0
    1.0496   -7.0410    4.2157 C   0  0  0  0  0  0  0  0  0  0  0  0
    1.0316   -3.0829    7.8151 C   0  0  1  0  0  0  0  0  0  0  0  0
   -0.3221   -3.2165    8.2101 O   0  0  0  0  0  0  0  0  0  0  0  0
    2.0014   -3.7073    8.9232 C   0  0  2  0  0  0  0  0  0  0  0  0
    1.2314   -4.0983   10.2155 C   0  0  0  0  0  0  0  0  0  0  0  0
    2.8807   -2.6943    9.4825 O   0  0  0  0  0  0  0  0  0  0  0  0
    4.2812   -2.9747    9.3527 C   0  0  2  0  0  0  0  0  0  0  0  0
    4.6476   -3.7364   10.6573 C   0  0  0  0  0  0  0  0  0  0  0  0
    5.2746   -1.7106    9.4595 C   0  0  0  0  0  0  0  0  0  0  0  0
    4.8152   -0.2178    9.2381 C   0  0  0  0  0  0  0  0  0  0  0  0
    4.9429    0.2544    7.7568 C   0  0  2  0  0  0  0  0  0  0  0  0
    6.3005    0.9276    7.5014 C   0  0  0  0  0  0  0  0  0  0  0  0
    3.9647    1.2092    7.5821 O   0  0  0  0  0  0  0  0  0  0  0  0
    2.9312    0.6039    6.8151 C   0  0  1  0  0  0  0  0  0  0  0  0
    3.0037    1.4302    5.4795 C   0  0  1  0  0  0  0  0  0  0  0  0
    4.3004    1.4607    4.9126 O   0  0  0  0  0  0  0  0  0  0  0  0
    3.1827   -0.9511    7.0221 C   0  0  2  0  0  0  0  0  0  0  0  0
    4.5835   -0.9116    7.0488 N   0  0  0  0  0  0  0  0  0  0  0  0
    4.5104   -1.1726    5.5785 O   0  0  0  0  0  0  0  0  0  0  0  0
    3.4809   -2.1432    6.0544 C   0  0  2  0  0  0  0  0  0  0  0  0
    4.4154   -3.4568    6.5558 C   0  0  0  0  0  0  0  0  0  0  0  0
    4.3163   -4.6944    5.6084 C   0  0  0  0  0  0  0  0  0  0  0  0
    5.9753   -3.2659    6.3491 C   0  0  0  0  0  0  0  0  0  0  0  0
    4.2625   -3.9500    8.0923 C   0  0  2  0  0  0  0  0  0  0  0  0
    2.9661   -4.7710    8.3370 C   0  0  1  0  0  0  0  0  0  0  0  0
    3.1219   -6.1803    9.0106 C   0  0  0  0  0  0  0  0  0  0  0  0
    2.0530   -7.1331    8.7026 N   0  0  0  0  0  0  0  0  0  0  0  0
    2.0744   -8.2901    8.0336 C   0  0  0  0  0  0  0  0  0  0  0  0
    0.8964   -8.8954    8.0608 N   0  0  0  0  0  0  0  0  0  0  0  0
    0.1154   -8.0432    8.8315 N   0  0  0  0  0  0  0  0  0  0  0  0
    0.8062   -6.9903    9.2217 N   0  0  0  0  0  0  0  0  0  0  0  0
    2.4555    4.3866    1.6485 H   0  0  0  0  0  0  0  0  0  0  0  0
    3.5093    4.7978    2.9919 H   0  0  0  0  0  0  0  0  0  0  0  0
    1.9710    5.6637    2.7734 H   0  0  0  0  0  0  0  0  0  0  0  0
    0.3028    5.3940    5.9599 H   0  0  0  0  0  0  0  0  0  0  0  0
   -0.4918    5.5441    4.3855 H   0  0  0  0  0  0  0  0  0  0  0  0
    1.1924    6.0515    4.5641 H   0  0  0  0  0  0  0  0  0  0  0  0
    1.5723    1.8872    2.3078 H   0  0  0  0  0  0  0  0  0  0  0  0
    3.1963    2.1605    2.8470 H   0  0  0  0  0  0  0  0  0  0  0  0
    1.4196   -0.2991    2.9517 H   0  0  0  0  0  0  0  0  0  0  0  0
    2.9445   -0.5445    3.6937 H   0  0  0  0  0  0  0  0  0  0  0  0
    1.0131   -0.7117    5.8311 H   0  0  0  0  0  0  0  0  0  0  0  0
   -0.3299   -2.2833    3.6827 H   0  0  0  0  0  0  0  0  0  0  0  0
   -0.6144   -0.5634    3.8487 H   0  0  0  0  0  0  0  0  0  0  0  0
   -0.9559   -1.5975    5.1757 H   0  0  0  0  0  0  0  0  0  0  0  0
    2.3714   -4.2596    3.8843 H   0  0  0  0  0  0  0  0  0  0  0  0
    3.3275   -2.8546    3.4895 H   0  0  0  0  0  0  0  0  0  0  0  0
    1.6334   -2.9189    3.1323 H   0  0  0  0  0  0  0  0  0  0  0  0
    0.1221   -3.0696    5.9520 H   0  0  0  0  0  0  0  0  0  0  0  0
   -2.2924   -6.8572    4.8789 H   0  0  0  0  0  0  0  0  0  0  0  0
   -2.3225   -8.7341    3.2719 H   0  0  0  0  0  0  0  0  0  0  0  0
   -0.2081   -9.5274    2.2435 H   0  0  0  0  0  0  0  0  0  0  0  0
    1.9438   -8.4430    2.8449 H   0  0  0  0  0  0  0  0  0  0  0  0
    1.9958   -6.5905    4.4607 H   0  0  0  0  0  0  0  0  0  0  0  0
    1.0596   -2.0099    7.9247 H   0  0  0  0  0  0  0  0  0  0  0  0
   -0.5551   -4.1352    8.1261 H   0  0  0  0  0  0  0  0  0  0  0  0
    0.4520   -4.8385   10.0446 H   0  0  0  0  0  0  0  0  0  0  0  0
    0.7399   -3.2178   10.6436 H   0  0  0  0  0  0  0  0  0  0  0  0
    1.8954   -4.4772   10.9911 H   0  0  0  0  0  0  0  0  0  0  0  0
    5.7008   -4.0141   10.6582 H   0  0  0  0  0  0  0  0  0  0  0  0
    4.0849   -4.6276   10.8582 H   0  0  0  0  0  0  0  0  0  0  0  0
    4.4704   -3.1078   11.5310 H   0  0  0  0  0  0  0  0  0  0  0  0
    5.6180   -1.6384   10.4901 H   0  0  0  0  0  0  0  0  0  0  0  0
    6.2134   -1.9153    8.9457 H   0  0  0  0  0  0  0  0  0  0  0  0
    3.7832   -0.0959    9.5646 H   0  0  0  0  0  0  0  0  0  0  0  0
    5.4031    0.4664    9.8529 H   0  0  0  0  0  0  0  0  0  0  0  0
    7.1344    0.2605    7.7339 H   0  0  0  0  0  0  0  0  0  0  0  0
    6.3800    1.8014    8.1520 H   0  0  0  0  0  0  0  0  0  0  0  0
    6.4087    1.2906    6.4759 H   0  0  0  0  0  0  0  0  0  0  0  0
    1.9809    0.8542    7.2865 H   0  0  0  0  0  0  0  0  0  0  0  0
    2.8895    2.4501    5.8280 H   0  0  0  0  0  0  0  0  0  0  0  0
    4.8821    1.7873    5.5871 H   0  0  0  0  0  0  0  0  0  0  0  0
    2.8209   -1.2317    7.9836 H   0  0  0  0  0  0  0  0  0  0  0  0
    4.9317   -5.5214    5.9656 H   0  0  0  0  0  0  0  0  0  0  0  0
    4.6593   -4.4776    4.5950 H   0  0  0  0  0  0  0  0  0  0  0  0
    3.3400   -5.1318    5.5121 H   0  0  0  0  0  0  0  0  0  0  0  0
    6.5332   -4.1758    6.5823 H   0  0  0  0  0  0  0  0  0  0  0  0
    6.4533   -2.5144    6.9654 H   0  0  0  0  0  0  0  0  0  0  0  0
    6.2166   -3.0135    5.3161 H   0  0  0  0  0  0  0  0  0  0  0  0
    5.1018   -4.6286    8.2487 H   0  0  0  0  0  0  0  0  0  0  0  0
    2.5896   -5.0951    7.3963 H   0  0  0  0  0  0  0  0  0  0  0  0
    4.0475   -6.6331    8.6520 H   0  0  0  0  0  0  0  0  0  0  0  0
    3.1962   -6.1722   10.0897 H   0  0  0  0  0  0  0  0  0  0  0  0
    2.9554   -8.7091    7.5600 H   0  0  0  0  0  0  0  0  0  0  0  0
  1  2  1  0
  1 55  1  0
  1 56  1  0
  1 57  1  0
  2  9  1  0
  2  3  2  0
  3  4  1  0
  3  5  1  0
  4 58  1  0
  4 59  1  0
  4 60  1  0
  5  6  2  0
  5  7  1  0
  8  7  1  1
  8 38  1  0
  8  9  1  0
  8 10  1  0
  9 61  1  0
  9 62  1  0
 10 11  1  0
 10 63  1  0
 10 64  1  0
 11 12  1  0
 11 13  1  0
 11 65  1  1
 12 66  1  0
 12 67  1  0
 12 68  1  0
 13 43  1  0
 13 14  1  6
 13 15  1  0
 14 69  1  0
 14 70  1  0
 14 71  1  0
 15 16  1  0
 15 25  1  0
 15 72  1  6
 16 17  1  0
 17 18  2  0
 17 19  1  0
 19 24  1  0
 19 20  2  0
 20 21  1  0
 20 73  1  0
 21 22  2  0
 21 74  1  0
 22 23  1  0
 22 75  1  0
 23 24  2  0
 23 76  1  0
 24 77  1  0
 25 26  1  0
 25 27  1  0
 25 78  1  6
 26 79  1  0
 27 48  1  0
 27 28  1  1
 27 29  1  0
 28 80  1  0
 28 81  1  0
 28 82  1  0
 29 30  1  0
 30 47  1  0
 30 31  1  1
 30 32  1  0
 31 83  1  0
 31 84  1  0
 31 85  1  0
 32 33  1  0
 32 86  1  0
 32 87  1  0
 33 34  1  0
 33 88  1  0
 33 89  1  0
 34 41  1  0
 34 35  1  6
 34 36  1  0
 35 90  1  0
 35 91  1  0
 35 92  1  0
 36 37  1  0
 37 38  1  0
 37 40  1  0
 37 93  1  1
 38 39  1  0
 38 94  1  1
 39 95  1  0
 40 43  1  0
 40 41  1  0
 40 96  1  1
 41 42  1  0
 43 42  1  6
 43 44  1  0
 44 45  1  0
 44 46  1  0
 44 47  1  0
 45 97  1  0
 45 98  1  0
 45 99  1  0
 46100  1  0
 46101  1  0
 46102  1  0
 47 48  1  0
 47103  1  1
 48 49  1  0
 48104  1  6
 49 50  1  0
 49105  1  0
 49106  1  0
 50 54  1  0
 50 51  1  0
 51 52  2  0
 51107  1  0
 52 53  1  0
 53 54  2  0
M  END
>  <i_m_ct_stereo_status>  (220) 
1

>  <s_m_source_file>  (220) 
/var/tmp/pbs.5083858.sched01/tmp7646clus/90uu10lt13.sdf

>  <i_m_source_file_index>  (220) 
5

>  <i_lp_mmshare_version>  (220) 
48012

>  <i_f3d_flags>  (220) 
0

>  <s_epik_input>  (220) 
W0NIM11DKFtDSDJdMSk9QyhbQ0gzXSlDKD1PKU9bQ0BAXTEyW0NIMl1bQ0BASF0oW0NIM10pW0NAQF0zKFtDSDNdKVtDQF00NVtDQEBIXTZbQ0BIXShbQ0BIXTJbT0hdKU9bQ0BdKFtDSDNdKShONk80KVtDSDJdW0NIMl1bQ0BdNyhbQ0gzXSlbQ0BIXShDNShbQ0gzXSlbQ0gzXSlbQ0BASF0oW0NIMl1uOFtjSF1ubm44KVtDQF0oTzcpKFtDSDNdKVtDQEhdKFtPSF0pW0NAQEhdM09DKD1PKWM5W2NIXVtjSF1bY0hdW2NIXVtjSF05

>  <s_epik_cmdline>  (220) 
J2VwaWtfcHl0aG9uJywgJy1waHQnLCAnMi4wJywgJy1waCcsICc3LjAnLCAnLXRuJywgJzgnLCAnLW1hJywgJzIwMCcsICctaW1hZScsICc8aW5maWxlLm1hZT4nLCAnLW9tYWUnLCAnPG91dGZpbGUubWFlPic=

>  <r_lp_tautomer_probability>  (220) 
1

>  <r_epik_Ionization_Penalty>  (220) 
0.000261786

>  <r_epik_Ionization_Penalty_Charging>  (220) 
0

>  <r_epik_Ionization_Penalty_Neutral>  (220) 
0.000261786

>  <r_epik_State_Penalty>  (220) 
0

>  <r_epik_Charging_Adjusted_Penalty>  (220) 
0

>  <i_epik_Tot_Q>  (220) 
0

>  <i_epik_Tot_abs_Q>  (220) 
0

>  <s_epik_Chemistry_Notes>  (220) 
This compound has an ester and may undergo hydrolysis at high or low pH. This compound has a N-S or N-O group and may undergo hydrolysis at high or low pH.

>  <s_lp_Force_Field>  (220) 
OPLS3e

>  <r_lp_Energy>  (220) 
201.317

>  <b_lp_Chiralities_Consistent>  (220) 
1

>  <s_lp_Variant>  (220) 
66:0-1

>  <s_i_glide_gridfile>  (220) 
pfpi4k_grid

>  <i_i_glide_lignum>  (220) 
5

>  <i_i_glide_rotatable_bonds>  (220) 
7

>  <r_i_docking_score>  (220) 
-2.92401

>  <r_i_glide_ligand_efficiency>  (220) 
-0.0541483

>  <r_i_glide_ligand_efficiency_sa>  (220) 
-0.204668

>  <r_i_glide_ligand_efficiency_ln>  (220) 
-0.586093

>  <r_i_glide_gscore>  (220) 
-2.92401

>  <r_i_glide_lipo>  (220) 
-0.0400314

>  <r_i_glide_hbond>  (220) 
0

>  <r_i_glide_metal>  (220) 
-0

>  <r_i_glide_rewards>  (220) 
-0.5

>  <r_i_glide_evdw>  (220) 
-31.4047

>  <r_i_glide_ecoul>  (220) 
-4.41042

>  <r_i_glide_erotb>  (220) 
0.00164059

>  <r_i_glide_esite>  (220) 
-0.153819

>  <r_i_glide_emodel>  (220) 
-43.7517

>  <r_i_glide_energy>  (220) 
-35.8151

>  <r_i_glide_einternal>  (220) 
5.20484

>  <r_i_glide_intrahb_reward>  (220) 
-0.5

>  <i_i_glide_confnum>  (220) 
3

>  <i_i_glide_posenum>  (220) 
1

>  <r_i_glide_eff_state_penalty>  (220) 
0

>  <ligand_id>  (220) 
66

>  <original_smiles>  (220) 
CC1=C(C)C(=O)OC2(C1)CC(C)C1(C)C(OC(=O)c3ccccc3)C(O)C3(C)OC4(C)CCC5(C)OC(C2O)C2N5OC21C(C)(C)C4C3Cn1cnnn1

>  <smiles>  (220) 
[H]OC1([H])C2([H])OC3(C([H])([H])[H])N4OC5(C42[H])C(C([H])([H])[H])(C([H])([H])[H])C2([H])C([H])(C([H])([H])n4nnnc4[H])C(C([H])([H])[H])(OC2(C([H])([H])[H])C([H])([H])C3([H])[H])C([H])(O[H])C([H])(OC(=O)c2c([H])c([H])c([H])c([H])c2[H])C5(C([H])([H])[H])C([H])(C([H])([H])[H])C([H])([H])C12OC(=O)C(C([H])([H])[H])=C(C([H])([H])[H])C2([H])[H]

$$$$
66:0:2
     RDKit          3D

107115  0  0  1  0  0  0  0  0999 V2000
    0.4757    2.6924    7.3182 C   0  0  0  0  0  0  0  0  0  0  0  0
    0.2080    1.3475    6.6528 C   0  0  0  0  0  0  0  0  0  0  0  0
   -1.0181    0.9178    6.2816 C   0  0  0  0  0  0  0  0  0  0  0  0
   -2.3059    1.7068    6.4991 C   0  0  0  0  0  0  0  0  0  0  0  0
   -1.1680   -0.3911    5.5758 C   0  0  0  0  0  0  0  0  0  0  0  0
   -2.2320   -0.7802    5.0989 O   0  0  0  0  0  0  0  0  0  0  0  0
   -0.0418   -1.1465    5.4702 O   0  0  0  0  0  0  0  0  0  0  0  0
    1.0904   -1.0260    6.3381 C   0  0  2  0  0  0  0  0  0  0  0  0
    1.4432    0.4905    6.4311 C   0  0  0  0  0  0  0  0  0  0  0  0
    2.2538   -1.8176    5.7144 C   0  0  0  0  0  0  0  0  0  0  0  0
    1.8498   -3.1942    5.1113 C   0  0  1  0  0  0  0  0  0  0  0  0
    1.6543   -2.9944    3.5701 C   0  0  0  0  0  0  0  0  0  0  0  0
    2.7461   -4.4105    5.6113 C   0  0  2  0  0  0  0  0  0  0  0  0
    4.1867   -3.9971    5.1621 C   0  0  0  0  0  0  0  0  0  0  0  0
    2.1705   -5.6911    4.7952 C   0  0  1  0  0  0  0  0  0  0  0  0
    3.2010   -6.4455    4.1253 O   0  0  0  0  0  0  0  0  0  0  0  0
    3.0605   -6.9482    2.8587 C   0  0  0  0  0  0  0  0  0  0  0  0
    2.0157   -6.9279    2.2081 O   0  0  0  0  0  0  0  0  0  0  0  0
    4.3095   -7.5617    2.3501 C   0  0  0  0  0  0  0  0  0  0  0  0
    4.2311   -8.7571    1.5920 C   0  0  0  0  0  0  0  0  0  0  0  0
    5.4006   -9.3508    1.0960 C   0  0  0  0  0  0  0  0  0  0  0  0
    6.6489   -8.7277    1.3464 C   0  0  0  0  0  0  0  0  0  0  0  0
    6.7417   -7.5456    2.0521 C   0  0  0  0  0  0  0  0  0  0  0  0
    5.5624   -6.9535    2.5746 C   0  0  0  0  0  0  0  0  0  0  0  0
    0.9232   -6.5303    5.3571 C   0  0  1  0  0  0  0  0  0  0  0  0
    0.0958   -6.8742    4.2590 O   0  0  0  0  0  0  0  0  0  0  0  0
    1.0087   -7.7441    6.4017 C   0  0  2  0  0  0  0  0  0  0  0  0
    0.0852   -8.9275    5.9963 C   0  0  0  0  0  0  0  0  0  0  0  0
    0.4240   -7.3751    7.6807 O   0  0  0  0  0  0  0  0  0  0  0  0
    1.3265   -7.4921    8.7879 C   0  0  2  0  0  0  0  0  0  0  0  0
    1.0649   -8.9346    9.3238 C   0  0  0  0  0  0  0  0  0  0  0  0
    0.9840   -6.6255   10.1044 C   0  0  0  0  0  0  0  0  0  0  0  0
    0.0385   -5.3654   10.0925 C   0  0  0  0  0  0  0  0  0  0  0  0
    0.8044   -4.0109    9.8462 C   0  0  2  0  0  0  0  0  0  0  0  0
    1.2164   -3.3671   11.1738 C   0  0  0  0  0  0  0  0  0  0  0  0
   -0.1066   -3.1994    9.2179 O   0  0  0  0  0  0  0  0  0  0  0  0
    0.2969   -3.1275    7.8574 C   0  0  1  0  0  0  0  0  0  0  0  0
    0.7418   -1.6228    7.7338 C   0  0  1  0  0  0  0  0  0  0  0  0
    1.7191   -1.2261    8.6834 O   0  0  0  0  0  0  0  0  0  0  0  0
    1.1793   -4.4224    7.6558 C   0  0  2  0  0  0  0  0  0  0  0  0
    1.7922   -4.4405    8.9196 N   0  0  0  0  0  0  0  0  0  0  0  0
    2.8624   -3.6064    8.2665 O   0  0  0  0  0  0  0  0  0  0  0  0
    2.6618   -4.6548    7.2224 C   0  0  2  0  0  0  0  0  0  0  0  0
    3.5368   -5.9713    7.8045 C   0  0  0  0  0  0  0  0  0  0  0  0
    4.8659   -6.2304    7.0171 C   0  0  0  0  0  0  0  0  0  0  0  0
    4.2805   -5.7168    9.1809 C   0  0  0  0  0  0  0  0  0  0  0  0
    2.7385   -7.3688    8.0480 C   0  0  2  0  0  0  0  0  0  0  0  0
    2.4664   -8.1550    6.7363 C   0  0  1  0  0  0  0  0  0  0  0  0
    2.8838   -9.6702    6.6364 C   0  0  0  0  0  0  0  0  0  0  0  0
    4.2457   -9.9797    7.0859 N   0  0  0  0  0  0  0  0  0  0  0  0
    4.6853  -10.9182    7.8913 C   0  0  0  0  0  0  0  0  0  0  0  0
    6.0027  -10.8421    8.1127 N   0  0  0  0  0  0  0  0  0  0  0  0
    6.3559   -9.7561    7.2867 N   0  0  0  0  0  0  0  0  0  0  0  0
    5.3457   -9.2860    6.6679 N   0  0  0  0  0  0  0  0  0  0  0  0
    1.3513    3.1677    6.8636 H   0  0  0  0  0  0  0  0  0  0  0  0
    0.6771    2.5440    8.3833 H   0  0  0  0  0  0  0  0  0  0  0  0
   -0.3618    3.3826    7.2253 H   0  0  0  0  0  0  0  0  0  0  0  0
   -3.1236    1.0450    6.8032 H   0  0  0  0  0  0  0  0  0  0  0  0
   -2.5684    2.2132    5.5644 H   0  0  0  0  0  0  0  0  0  0  0  0
   -2.2121    2.4594    7.2810 H   0  0  0  0  0  0  0  0  0  0  0  0
    1.9284    0.8392    5.5178 H   0  0  0  0  0  0  0  0  0  0  0  0
    2.1662    0.6824    7.2224 H   0  0  0  0  0  0  0  0  0  0  0  0
    2.6934   -1.2207    4.9121 H   0  0  0  0  0  0  0  0  0  0  0  0
    3.0657   -1.9127    6.4344 H   0  0  0  0  0  0  0  0  0  0  0  0
    0.8353   -3.4348    5.4043 H   0  0  0  0  0  0  0  0  0  0  0  0
    2.5536   -3.1620    2.9774 H   0  0  0  0  0  0  0  0  0  0  0  0
    1.3051   -1.9874    3.3339 H   0  0  0  0  0  0  0  0  0  0  0  0
    0.8695   -3.6362    3.1652 H   0  0  0  0  0  0  0  0  0  0  0  0
    4.8229   -4.8094    4.8252 H   0  0  0  0  0  0  0  0  0  0  0  0
    4.7192   -3.5010    5.9744 H   0  0  0  0  0  0  0  0  0  0  0  0
    4.2053   -3.2966    4.3296 H   0  0  0  0  0  0  0  0  0  0  0  0
    1.7164   -5.2619    3.9175 H   0  0  0  0  0  0  0  0  0  0  0  0
    3.2842   -9.2264    1.3894 H   0  0  0  0  0  0  0  0  0  0  0  0
    5.3534  -10.2590    0.5044 H   0  0  0  0  0  0  0  0  0  0  0  0
    7.5242   -9.1508    0.8705 H   0  0  0  0  0  0  0  0  0  0  0  0
    7.6986   -7.0631    2.1792 H   0  0  0  0  0  0  0  0  0  0  0  0
    5.6376   -6.0219    3.1070 H   0  0  0  0  0  0  0  0  0  0  0  0
    0.2331   -5.8018    5.7570 H   0  0  0  0  0  0  0  0  0  0  0  0
    0.5155   -7.5703    3.7790 H   0  0  0  0  0  0  0  0  0  0  0  0
    0.3787   -9.3967    5.0607 H   0  0  0  0  0  0  0  0  0  0  0  0
   -0.9493   -8.6090    5.8666 H   0  0  0  0  0  0  0  0  0  0  0  0
    0.0438   -9.7042    6.7567 H   0  0  0  0  0  0  0  0  0  0  0  0
    1.7239   -9.1531   10.1680 H   0  0  0  0  0  0  0  0  0  0  0  0
    1.1474   -9.7333    8.6261 H   0  0  0  0  0  0  0  0  0  0  0  0
    0.0354   -9.0121    9.6934 H   0  0  0  0  0  0  0  0  0  0  0  0
    0.4177   -7.2560   10.7885 H   0  0  0  0  0  0  0  0  0  0  0  0
    1.8794   -6.4520   10.6928 H   0  0  0  0  0  0  0  0  0  0  0  0
   -0.7230   -5.4693    9.3283 H   0  0  0  0  0  0  0  0  0  0  0  0
   -0.4886   -5.2614   11.0426 H   0  0  0  0  0  0  0  0  0  0  0  0
    1.8416   -4.0266   11.7748 H   0  0  0  0  0  0  0  0  0  0  0  0
    0.3155   -3.1460   11.7479 H   0  0  0  0  0  0  0  0  0  0  0  0
    1.7380   -2.4113   11.0310 H   0  0  0  0  0  0  0  0  0  0  0  0
   -0.5975   -3.2358    7.2439 H   0  0  0  0  0  0  0  0  0  0  0  0
   -0.1304   -1.0871    8.0717 H   0  0  0  0  0  0  0  0  0  0  0  0
    2.5181   -1.6933    8.5088 H   0  0  0  0  0  0  0  0  0  0  0  0
    0.5526   -5.2847    7.5820 H   0  0  0  0  0  0  0  0  0  0  0  0
    5.4520   -7.0096    7.4764 H   0  0  0  0  0  0  0  0  0  0  0  0
    5.5081   -5.3372    6.9818 H   0  0  0  0  0  0  0  0  0  0  0  0
    4.7359   -6.5636    5.9933 H   0  0  0  0  0  0  0  0  0  0  0  0
    4.9044   -6.5714    9.4647 H   0  0  0  0  0  0  0  0  0  0  0  0
    3.6538   -5.5887   10.0517 H   0  0  0  0  0  0  0  0  0  0  0  0
    4.9491   -4.8558    9.1448 H   0  0  0  0  0  0  0  0  0  0  0  0
    3.4133   -7.9775    8.6442 H   0  0  0  0  0  0  0  0  0  0  0  0
    3.0933   -7.7823    5.9594 H   0  0  0  0  0  0  0  0  0  0  0  0
    2.2255  -10.3559    7.1511 H   0  0  0  0  0  0  0  0  0  0  0  0
    2.8290   -9.9789    5.5872 H   0  0  0  0  0  0  0  0  0  0  0  0
    4.0796  -11.7262    8.3389 H   0  0  0  0  0  0  0  0  0  0  0  0
  1  2  1  0
  1 55  1  0
  1 56  1  0
  1 57  1  0
  2  9  1  0
  2  3  2  0
  3  4  1  0
  3  5  1  0
  4 58  1  0
  4 59  1  0
  4 60  1  0
  5  6  2  0
  5  7  1  0
  8  7  1  6
  8 38  1  0
  8  9  1  0
  8 10  1  0
  9 61  1  0
  9 62  1  0
 10 11  1  0
 10 63  1  0
 10 64  1  0
 11 12  1  0
 11 13  1  0
 11 65  1  1
 12 66  1  0
 12 67  1  0
 12 68  1  0
 13 43  1  0
 13 14  1  6
 13 15  1  0
 14 69  1  0
 14 70  1  0
 14 71  1  0
 15 16  1  0
 15 25  1  0
 15 72  1  6
 16 17  1  0
 17 18  2  0
 17 19  1  0
 19 24  1  0
 19 20  2  0
 20 21  1  0
 20 73  1  0
 21 22  2  0
 21 74  1  0
 22 23  1  0
 22 75  1  0
 23 24  2  0
 23 76  1  0
 24 77  1  0
 25 26  1  0
 25 27  1  0
 25 78  1  1
 26 79  1  0
 27 48  1  0
 27 28  1  6
 27 29  1  0
 28 80  1  0
 28 81  1  0
 28 82  1  0
 29 30  1  0
 30 47  1  0
 30 31  1  1
 30 32  1  0
 31 83  1  0
 31 84  1  0
 31 85  1  0
 32 33  1  0
 32 86  1  0
 32 87  1  0
 33 34  1  0
 33 88  1  0
 33 89  1  0
 34 41  1  0
 34 35  1  1
 34 36  1  0
 35 90  1  0
 35 91  1  0
 35 92  1  0
 36 37  1  0
 37 38  1  0
 37 40  1  0
 37 93  1  6
 38 39  1  0
 38 94  1  1
 39 95  1  0
 40 43  1  0
 40 41  1  0
 40 96  1  1
 41 42  1  0
 43 42  1  1
 43 44  1  0
 44 45  1  0
 44 46  1  0
 44 47  1  0
 45 97  1  0
 45 98  1  0
 45 99  1  0
 46100  1  0
 46101  1  0
 46102  1  0
 47 48  1  0
 47103  1  1
 48 49  1  0
 48104  1  6
 49 50  1  0
 49105  1  0
 49106  1  0
 50 54  1  0
 50 51  1  0
 51 52  2  0
 51107  1  0
 52 53  1  0
 53 54  2  0
M  END
>  <i_m_ct_stereo_status>  (221) 
1

>  <s_m_source_file>  (221) 
/var/tmp/pbs.5083858.sched01/tmp7646clus/90uu10lt13.sdf

>  <i_m_source_file_index>  (221) 
5

>  <i_lp_mmshare_version>  (221) 
48012

>  <i_f3d_flags>  (221) 
0

>  <s_epik_input>  (221) 
W0NIM11DKFtDSDJdMSk9QyhbQ0gzXSlDKD1PKU9bQ0BAXTEyW0NIMl1bQ0BASF0oW0NIM10pW0NAQF0zKFtDSDNdKVtDQF00NVtDQEBIXTZbQ0BIXShbQ0BIXTJbT0hdKU9bQ0BdKFtDSDNdKShONk80KVtDSDJdW0NIMl1bQ0BdNyhbQ0gzXSlbQ0BIXShDNShbQ0gzXSlbQ0gzXSlbQ0BASF0oW0NIMl1uOFtjSF1ubm44KVtDQF0oTzcpKFtDSDNdKVtDQEhdKFtPSF0pW0NAQEhdM09DKD1PKWM5W2NIXVtjSF1bY0hdW2NIXVtjSF05

>  <s_epik_cmdline>  (221) 
J2VwaWtfcHl0aG9uJywgJy1waHQnLCAnMi4wJywgJy1waCcsICc3LjAnLCAnLXRuJywgJzgnLCAnLW1hJywgJzIwMCcsICctaW1hZScsICc8aW5maWxlLm1hZT4nLCAnLW9tYWUnLCAnPG91dGZpbGUubWFlPic=

>  <r_lp_tautomer_probability>  (221) 
1

>  <r_epik_Ionization_Penalty>  (221) 
0.000261786

>  <r_epik_Ionization_Penalty_Charging>  (221) 
0

>  <r_epik_Ionization_Penalty_Neutral>  (221) 
0.000261786

>  <r_epik_State_Penalty>  (221) 
0

>  <r_epik_Charging_Adjusted_Penalty>  (221) 
0

>  <i_epik_Tot_Q>  (221) 
0

>  <i_epik_Tot_abs_Q>  (221) 
0

>  <s_epik_Chemistry_Notes>  (221) 
This compound has an ester and may undergo hydrolysis at high or low pH. This compound has a N-S or N-O group and may undergo hydrolysis at high or low pH.

>  <s_lp_Force_Field>  (221) 
OPLS3e

>  <r_lp_Energy>  (221) 
201.317

>  <b_lp_Chiralities_Consistent>  (221) 
1

>  <s_lp_Variant>  (221) 
66:0-1

>  <s_i_glide_gridfile>  (221) 
pfpi4k_grid

>  <i_i_glide_lignum>  (221) 
5

>  <i_i_glide_rotatable_bonds>  (221) 
7

>  <r_i_docking_score>  (221) 
-2.91788

>  <r_i_glide_ligand_efficiency>  (221) 
-0.0540349

>  <r_i_glide_ligand_efficiency_sa>  (221) 
-0.204239

>  <r_i_glide_ligand_efficiency_ln>  (221) 
-0.584865

>  <r_i_glide_gscore>  (221) 
-2.91788

>  <r_i_glide_lipo>  (221) 
-0.212763

>  <r_i_glide_hbond>  (221) 
-0.0610757

>  <r_i_glide_metal>  (221) 
-0

>  <r_i_glide_rewards>  (221) 
-0.5

>  <r_i_glide_evdw>  (221) 
-28.0008

>  <r_i_glide_ecoul>  (221) 
-4.16589

>  <r_i_glide_erotb>  (221) 
0.00164059

>  <r_i_glide_esite>  (221) 
-0.120762

>  <r_i_glide_emodel>  (221) 
-40.9499

>  <r_i_glide_energy>  (221) 
-32.1667

>  <r_i_glide_einternal>  (221) 
3.5421

>  <r_i_glide_intrahb_reward>  (221) 
-0.5

>  <i_i_glide_confnum>  (221) 
3

>  <i_i_glide_posenum>  (221) 
3

>  <r_i_glide_eff_state_penalty>  (221) 
0

>  <ligand_id>  (221) 
66

>  <original_smiles>  (221) 
CC1=C(C)C(=O)OC2(C1)CC(C)C1(C)C(OC(=O)c3ccccc3)C(O)C3(C)OC4(C)CCC5(C)OC(C2O)C2N5OC21C(C)(C)C4C3Cn1cnnn1

>  <smiles>  (221) 
[H]OC1([H])C2([H])OC3(C([H])([H])[H])N4OC5(C42[H])C(C([H])([H])[H])(C([H])([H])[H])C2([H])C([H])(C([H])([H])n4nnnc4[H])C(C([H])([H])[H])(OC2(C([H])([H])[H])C([H])([H])C3([H])[H])C([H])(O[H])C([H])(OC(=O)c2c([H])c([H])c([H])c([H])c2[H])C5(C([H])([H])[H])C([H])(C([H])([H])[H])C([H])([H])C12OC(=O)C(C([H])([H])[H])=C(C([H])([H])[H])C2([H])[H]

$$$$
67:0:0
     RDKit          3D

 37 40  0  0  1  0  0  0  0  0999 V2000
    7.1339   -1.8736    0.0471 N   0  0  0  0  0  0  0  0  0  0  0  0
    6.2449   -1.4455    0.6323 C   0  0  0  0  0  0  0  0  0  0  0  0
    5.1073   -0.8948    1.3662 C   0  0  0  0  0  0  0  0  0  0  0  0
    3.9018   -0.6909    0.6895 C   0  0  0  0  0  0  0  0  0  0  0  0
    2.7944   -0.1549    1.3615 C   0  0  0  0  0  0  0  0  0  0  0  0
    2.8694    0.1907    2.7307 C   0  0  0  0  0  0  0  0  0  0  0  0
    1.6435    0.7843    3.4738 C   0  0  1  0  0  0  0  0  0  0  0  0
    1.9732    2.2063    4.0044 C   0  0  0  0  0  0  0  0  0  0  0  0
    0.7460    2.7931    4.7432 C   0  0  2  0  0  0  0  0  0  0  0  0
    0.3873    1.8821    5.9347 C   0  0  0  0  0  0  0  0  0  0  0  0
    0.0293    0.4737    5.4182 C   0  0  1  0  0  0  0  0  0  0  0  0
   -1.1767    0.5614    4.4607 C   0  0  0  0  0  0  0  0  0  0  0  0
   -0.8152    1.4807    3.2859 C   0  0  1  0  0  0  0  0  0  0  0  0
   -0.4510    2.8879    3.7751 C   0  0  0  0  0  0  0  0  0  0  0  0
    0.3967    0.8971    2.5433 C   0  0  0  0  0  0  0  0  0  0  0  0
    1.2536   -0.1190    4.6776 C   0  0  0  0  0  0  0  0  0  0  0  0
    4.0892   -0.0162    3.4040 C   0  0  0  0  0  0  0  0  0  0  0  0
    5.2071   -0.5570    2.7326 C   0  0  0  0  0  0  0  0  0  0  0  0
    3.7904   -0.9392   -0.3578 H   0  0  0  0  0  0  0  0  0  0  0  0
    1.8911   -0.0177    0.7993 H   0  0  0  0  0  0  0  0  0  0  0  0
    2.8223    2.1929    4.6882 H   0  0  0  0  0  0  0  0  0  0  0  0
    2.2565    2.8601    3.1796 H   0  0  0  0  0  0  0  0  0  0  0  0
    0.9928    3.7897    5.1063 H   0  0  0  0  0  0  0  0  0  0  0  0
    1.2281    1.8224    6.6248 H   0  0  0  0  0  0  0  0  0  0  0  0
   -0.4491    2.3061    6.4923 H   0  0  0  0  0  0  0  0  0  0  0  0
   -0.2222   -0.1718    6.2584 H   0  0  0  0  0  0  0  0  0  0  0  0
   -1.4358   -0.4303    4.0900 H   0  0  0  0  0  0  0  0  0  0  0  0
   -2.0574    0.9478    4.9741 H   0  0  0  0  0  0  0  0  0  0  0  0
   -1.6485    1.5371    2.5888 H   0  0  0  0  0  0  0  0  0  0  0  0
   -1.3130    3.3489    4.2557 H   0  0  0  0  0  0  0  0  0  0  0  0
   -0.1869    3.5146    2.9234 H   0  0  0  0  0  0  0  0  0  0  0  0
    0.5971    1.5501    1.6914 H   0  0  0  0  0  0  0  0  0  0  0  0
    0.1136   -0.0838    2.1601 H   0  0  0  0  0  0  0  0  0  0  0  0
    1.0273   -1.1276    4.3323 H   0  0  0  0  0  0  0  0  0  0  0  0
    2.0758   -0.2183    5.3872 H   0  0  0  0  0  0  0  0  0  0  0  0
    4.1722    0.2509    4.4531 H   0  0  0  0  0  0  0  0  0  0  0  0
    6.1403   -0.6977    3.2667 H   0  0  0  0  0  0  0  0  0  0  0  0
  1  2  3  0
  2  3  1  0
  3 18  2  0
  3  4  1  0
  4  5  2  0
  4 19  1  0
  5  6  1  0
  5 20  1  0
  7  6  1  6
  6 17  2  0
  7 15  1  0
  7 16  1  0
  7  8  1  0
  8  9  1  0
  8 21  1  0
  8 22  1  0
  9 14  1  0
  9 10  1  0
  9 23  1  1
 10 11  1  0
 10 24  1  0
 10 25  1  0
 11 12  1  0
 11 16  1  0
 11 26  1  1
 12 13  1  0
 12 27  1  0
 12 28  1  0
 13 14  1  0
 13 15  1  0
 13 29  1  6
 14 30  1  0
 14 31  1  0
 15 32  1  0
 15 33  1  0
 16 34  1  0
 16 35  1  0
 17 18  1  0
 17 36  1  0
 18 37  1  0
M  END
>  <i_m_ct_stereo_status>  (222) 
1

>  <s_m_source_file>  (222) 
/var/tmp/pbs.5083858.sched01/tmpba25mbhw/952bd64zhe.sdf

>  <i_m_source_file_index>  (222) 
1

>  <i_lp_mmshare_version>  (222) 
48012

>  <i_f3d_flags>  (222) 
0

>  <s_epik_input>  (222) 
TiNDYzFbY0hdW2NIXWMoW2NIXVtjSF0xKUMyM1tDSDJdW0NASF00W0NIMl1bQ0BASF0oW0NIMl0zKVtDSDJdW0NASF0oW0NIMl00KVtDSDJdMg==

>  <s_epik_cmdline>  (222) 
J2VwaWtfcHl0aG9uJywgJy1waHQnLCAnMi4wJywgJy1waCcsICc3LjAnLCAnLXRuJywgJzgnLCAnLW1hJywgJzIwMCcsICctaW1hZScsICc8aW5maWxlLm1hZT4nLCAnLW9tYWUnLCAnPG91dGZpbGUubWFlPic=

>  <r_lp_tautomer_probability>  (222) 
1

>  <r_epik_Ionization_Penalty>  (222) 
0

>  <r_epik_Ionization_Penalty_Charging>  (222) 
0

>  <r_epik_Ionization_Penalty_Neutral>  (222) 
0

>  <r_epik_State_Penalty>  (222) 
-0

>  <r_epik_Charging_Adjusted_Penalty>  (222) 
0

>  <i_epik_Tot_Q>  (222) 
0

>  <i_epik_Tot_abs_Q>  (222) 
0

>  <s_lp_Force_Field>  (222) 
OPLS3e

>  <r_lp_Energy>  (222) 
16.1521

>  <b_lp_Chiralities_Consistent>  (222) 
1

>  <s_lp_Variant>  (222) 
67:0-1

>  <s_i_glide_gridfile>  (222) 
pfpi4k_grid

>  <i_i_glide_lignum>  (222) 
1

>  <i_i_glide_rotatable_bonds>  (222) 
2

>  <r_i_docking_score>  (222) 
-3.27041

>  <r_i_glide_ligand_efficiency>  (222) 
-0.181689

>  <r_i_glide_ligand_efficiency_sa>  (222) 
-0.476161

>  <r_i_glide_ligand_efficiency_ln>  (222) 
-0.840642

>  <r_i_glide_gscore>  (222) 
-3.27041

>  <r_i_glide_lipo>  (222) 
-0.276621

>  <r_i_glide_hbond>  (222) 
-0.0687147

>  <r_i_glide_metal>  (222) 
-0

>  <r_i_glide_rewards>  (222) 
-1.92387

>  <r_i_glide_evdw>  (222) 
-20.6429

>  <r_i_glide_ecoul>  (222) 
-1.83372

>  <r_i_glide_erotb>  (222) 
0.306005

>  <r_i_glide_esite>  (222) 
0

>  <r_i_glide_emodel>  (222) 
-26.3772

>  <r_i_glide_energy>  (222) 
-22.4766

>  <r_i_glide_einternal>  (222) 
1.65011

>  <r_i_glide_intrahb_reward>  (222) 
-0

>  <i_i_glide_confnum>  (222) 
2

>  <i_i_glide_posenum>  (222) 
27

>  <r_i_glide_eff_state_penalty>  (222) 
0

>  <ligand_id>  (222) 
67

>  <original_smiles>  (222) 
N#Cc1ccc(C23CC4CC(CC(C4)C2)C3)cc1

>  <smiles>  (222) 
[H]c1c([H])c(C23C([H])([H])C4([H])C([H])([H])C([H])(C([H])([H])C([H])(C4([H])[H])C2([H])[H])C3([H])[H])c([H])c([H])c1C#N

$$$$
67:0:1
     RDKit          3D

 37 40  0  0  1  0  0  0  0  0999 V2000
    6.2573   -1.6694    0.7882 N   0  0  0  0  0  0  0  0  0  0  0  0
    5.3768   -1.1205    1.3041 C   0  0  0  0  0  0  0  0  0  0  0  0
    4.2729   -0.4309    1.9444 C   0  0  0  0  0  0  0  0  0  0  0  0
    4.4093    0.1095    3.2336 C   0  0  0  0  0  0  0  0  0  0  0  0
    3.3352    0.8068    3.8197 C   0  0  0  0  0  0  0  0  0  0  0  0
    2.1064    0.9645    3.1412 C   0  0  0  0  0  0  0  0  0  0  0  0
    0.9497    1.7237    3.8130 C   0  0  1  0  0  0  0  0  0  0  0  0
    1.3613    3.2014    4.0645 C   0  0  0  0  0  0  0  0  0  0  0  0
    0.2147    3.9620    4.7627 C   0  0  2  0  0  0  0  0  0  0  0  0
   -0.0926    3.2870    6.1160 C   0  0  0  0  0  0  0  0  0  0  0  0
   -0.5352    1.8296    5.8722 C   0  0  1  0  0  0  0  0  0  0  0  0
   -1.7885    1.8100    4.9840 C   0  0  0  0  0  0  0  0  0  0  0  0
   -1.4755    2.4848    3.6383 C   0  0  1  0  0  0  0  0  0  0  0  0
   -1.0387    3.9434    3.8631 C   0  0  0  0  0  0  0  0  0  0  0  0
   -0.3415    1.7203    2.9410 C   0  0  0  0  0  0  0  0  0  0  0  0
    0.6042    1.0597    5.1766 C   0  0  0  0  0  0  0  0  0  0  0  0
    1.9870    0.4111    1.8463 C   0  0  0  0  0  0  0  0  0  0  0  0
    3.0562   -0.2800    1.2565 C   0  0  0  0  0  0  0  0  0  0  0  0
    5.3357    0.0131    3.7744 H   0  0  0  0  0  0  0  0  0  0  0  0
    3.4660    1.2301    4.7993 H   0  0  0  0  0  0  0  0  0  0  0  0
    2.2559    3.2619    4.6871 H   0  0  0  0  0  0  0  0  0  0  0  0
    1.6118    3.6897    3.1202 H   0  0  0  0  0  0  0  0  0  0  0  0
    0.5252    4.9929    4.9334 H   0  0  0  0  0  0  0  0  0  0  0  0
    0.7909    3.3049    6.7530 H   0  0  0  0  0  0  0  0  0  0  0  0
   -0.8689    3.8367    6.6452 H   0  0  0  0  0  0  0  0  0  0  0  0
   -0.7583    1.3524    6.8267 H   0  0  0  0  0  0  0  0  0  0  0  0
   -2.1212    0.7844    4.8144 H   0  0  0  0  0  0  0  0  0  0  0  0
   -2.6065    2.3331    5.4813 H   0  0  0  0  0  0  0  0  0  0  0  0
   -2.3586    2.4648    3.0020 H   0  0  0  0  0  0  0  0  0  0  0  0
   -1.8473    4.5138    4.3154 H   0  0  0  0  0  0  0  0  0  0  0  0
   -0.8087    4.4111    2.9053 H   0  0  0  0  0  0  0  0  0  0  0  0
   -0.1616    2.1907    1.9731 H   0  0  0  0  0  0  0  0  0  0  0  0
   -0.6756    0.7005    2.7479 H   0  0  0  0  0  0  0  0  0  0  0  0
    0.3172    0.0172    5.0250 H   0  0  0  0  0  0  0  0  0  0  0  0
    1.4642    1.0467    5.8484 H   0  0  0  0  0  0  0  0  0  0  0  0
    1.0859    0.4966    1.2615 H   0  0  0  0  0  0  0  0  0  0  0  0
    2.9252   -0.6813    0.2641 H   0  0  0  0  0  0  0  0  0  0  0  0
  1  2  3  0
  2  3  1  0
  3 18  2  0
  3  4  1  0
  4  5  2  0
  4 19  1  0
  5  6  1  0
  5 20  1  0
  7  6  1  6
  6 17  2  0
  7 15  1  0
  7 16  1  0
  7  8  1  0
  8  9  1  0
  8 21  1  0
  8 22  1  0
  9 14  1  0
  9 10  1  0
  9 23  1  1
 10 11  1  0
 10 24  1  0
 10 25  1  0
 11 12  1  0
 11 16  1  0
 11 26  1  1
 12 13  1  0
 12 27  1  0
 12 28  1  0
 13 14  1  0
 13 15  1  0
 13 29  1  6
 14 30  1  0
 14 31  1  0
 15 32  1  0
 15 33  1  0
 16 34  1  0
 16 35  1  0
 17 18  1  0
 17 36  1  0
 18 37  1  0
M  END
>  <i_m_ct_stereo_status>  (223) 
1

>  <s_m_source_file>  (223) 
/var/tmp/pbs.5083858.sched01/tmpba25mbhw/952bd64zhe.sdf

>  <i_m_source_file_index>  (223) 
1

>  <i_lp_mmshare_version>  (223) 
48012

>  <i_f3d_flags>  (223) 
0

>  <s_epik_input>  (223) 
TiNDYzFbY0hdW2NIXWMoW2NIXVtjSF0xKUMyM1tDSDJdW0NASF00W0NIMl1bQ0BASF0oW0NIMl0zKVtDSDJdW0NASF0oW0NIMl00KVtDSDJdMg==

>  <s_epik_cmdline>  (223) 
J2VwaWtfcHl0aG9uJywgJy1waHQnLCAnMi4wJywgJy1waCcsICc3LjAnLCAnLXRuJywgJzgnLCAnLW1hJywgJzIwMCcsICctaW1hZScsICc8aW5maWxlLm1hZT4nLCAnLW9tYWUnLCAnPG91dGZpbGUubWFlPic=

>  <r_lp_tautomer_probability>  (223) 
1

>  <r_epik_Ionization_Penalty>  (223) 
0

>  <r_epik_Ionization_Penalty_Charging>  (223) 
0

>  <r_epik_Ionization_Penalty_Neutral>  (223) 
0

>  <r_epik_State_Penalty>  (223) 
-0

>  <r_epik_Charging_Adjusted_Penalty>  (223) 
0

>  <i_epik_Tot_Q>  (223) 
0

>  <i_epik_Tot_abs_Q>  (223) 
0

>  <s_lp_Force_Field>  (223) 
OPLS3e

>  <r_lp_Energy>  (223) 
16.1521

>  <b_lp_Chiralities_Consistent>  (223) 
1

>  <s_lp_Variant>  (223) 
67:0-1

>  <s_i_glide_gridfile>  (223) 
pfpi4k_grid

>  <i_i_glide_lignum>  (223) 
1

>  <i_i_glide_rotatable_bonds>  (223) 
2

>  <r_i_docking_score>  (223) 
-2.88869

>  <r_i_glide_ligand_efficiency>  (223) 
-0.160483

>  <r_i_glide_ligand_efficiency_sa>  (223) 
-0.420584

>  <r_i_glide_ligand_efficiency_ln>  (223) 
-0.742524

>  <r_i_glide_gscore>  (223) 
-2.88869

>  <r_i_glide_lipo>  (223) 
-0.110494

>  <r_i_glide_hbond>  (223) 
0

>  <r_i_glide_metal>  (223) 
-0

>  <r_i_glide_rewards>  (223) 
-1.95761

>  <r_i_glide_evdw>  (223) 
-20.5958

>  <r_i_glide_ecoul>  (223) 
-0.645323

>  <r_i_glide_erotb>  (223) 
0.306005

>  <r_i_glide_esite>  (223) 
0

>  <r_i_glide_emodel>  (223) 
-25.4711

>  <r_i_glide_energy>  (223) 
-21.2411

>  <r_i_glide_einternal>  (223) 
0.0999981

>  <r_i_glide_intrahb_reward>  (223) 
-0

>  <i_i_glide_confnum>  (223) 
2

>  <i_i_glide_posenum>  (223) 
1

>  <r_i_glide_eff_state_penalty>  (223) 
0

>  <ligand_id>  (223) 
67

>  <original_smiles>  (223) 
N#Cc1ccc(C23CC4CC(CC(C4)C2)C3)cc1

>  <smiles>  (223) 
[H]c1c([H])c(C23C([H])([H])C4([H])C([H])([H])C([H])(C([H])([H])C([H])(C4([H])[H])C2([H])[H])C3([H])[H])c([H])c([H])c1C#N

$$$$
67:0:2
     RDKit          3D

 37 40  0  0  1  0  0  0  0  0999 V2000
   -0.3303   -7.1298    5.1522 N   0  0  0  0  0  0  0  0  0  0  0  0
    0.3261   -6.5436    4.4047 C   0  0  0  0  0  0  0  0  0  0  0  0
    1.1454   -5.8011    3.4694 C   0  0  0  0  0  0  0  0  0  0  0  0
    1.6181   -6.4022    2.2913 C   0  0  0  0  0  0  0  0  0  0  0  0
    2.4080   -5.6625    1.3919 C   0  0  0  0  0  0  0  0  0  0  0  0
    2.7427   -4.3140    1.6546 C   0  0  0  0  0  0  0  0  0  0  0  0
    3.6145   -3.5369    0.6521 C   0  0  1  0  0  0  0  0  0  0  0  0
    4.9718   -4.2686    0.4436 C   0  0  0  0  0  0  0  0  0  0  0  0
    5.8405   -3.5013   -0.5736 C   0  0  2  0  0  0  0  0  0  0  0  0
    6.1234   -2.0846   -0.0387 C   0  0  0  0  0  0  0  0  0  0  0  0
    4.7911   -1.3348    0.1245 C   0  0  1  0  0  0  0  0  0  0  0  0
    4.0496   -1.2538   -1.2221 C   0  0  0  0  0  0  0  0  0  0  0  0
    3.7656   -2.6792   -1.7349 C   0  0  1  0  0  0  0  0  0  0  0  0
    5.0979   -3.4304   -1.9267 C   0  0  0  0  0  0  0  0  0  0  0  0
    2.8898   -3.4437   -0.7168 C   0  0  0  0  0  0  0  0  0  0  0  0
    3.9152   -2.0859    1.1358 C   0  0  0  0  0  0  0  0  0  0  0  0
    2.2556   -3.7230    2.8456 C   0  0  0  0  0  0  0  0  0  0  0  0
    1.4644   -4.4568    3.7431 C   0  0  0  0  0  0  0  0  0  0  0  0
    1.3858   -7.4312    2.0669 H   0  0  0  0  0  0  0  0  0  0  0  0
    2.7611   -6.1385    0.4933 H   0  0  0  0  0  0  0  0  0  0  0  0
    5.5011   -4.3644    1.3943 H   0  0  0  0  0  0  0  0  0  0  0  0
    4.8248   -5.2834    0.0689 H   0  0  0  0  0  0  0  0  0  0  0  0
    6.7832   -4.0298   -0.7065 H   0  0  0  0  0  0  0  0  0  0  0  0
    6.6340   -2.1462    0.9223 H   0  0  0  0  0  0  0  0  0  0  0  0
    6.7805   -1.5475   -0.7163 H   0  0  0  0  0  0  0  0  0  0  0  0
    4.9757   -0.3285    0.4980 H   0  0  0  0  0  0  0  0  0  0  0  0
    3.1057   -0.7252   -1.0907 H   0  0  0  0  0  0  0  0  0  0  0  0
    4.6349   -0.6890   -1.9482 H   0  0  0  0  0  0  0  0  0  0  0  0
    3.2364   -2.6206   -2.6862 H   0  0  0  0  0  0  0  0  0  0  0  0
    5.7099   -2.9279   -2.6756 H   0  0  0  0  0  0  0  0  0  0  0  0
    4.9058   -4.4369   -2.3016 H   0  0  0  0  0  0  0  0  0  0  0  0
    2.6627   -4.4320   -1.1157 H   0  0  0  0  0  0  0  0  0  0  0  0
    1.9284   -2.9468   -0.5938 H   0  0  0  0  0  0  0  0  0  0  0  0
    2.9900   -1.5208    1.2653 H   0  0  0  0  0  0  0  0  0  0  0  0
    4.4307   -2.0981    2.0979 H   0  0  0  0  0  0  0  0  0  0  0  0
    2.4658   -2.6994    3.1072 H   0  0  0  0  0  0  0  0  0  0  0  0
    1.1072   -3.9770    4.6404 H   0  0  0  0  0  0  0  0  0  0  0  0
  1  2  3  0
  2  3  1  0
  3 18  2  0
  3  4  1  0
  4  5  2  0
  4 19  1  0
  5  6  1  0
  5 20  1  0
  7  6  1  1
  6 17  2  0
  7 15  1  0
  7 16  1  0
  7  8  1  0
  8  9  1  0
  8 21  1  0
  8 22  1  0
  9 14  1  0
  9 10  1  0
  9 23  1  6
 10 11  1  0
 10 24  1  0
 10 25  1  0
 11 12  1  0
 11 16  1  0
 11 26  1  1
 12 13  1  0
 12 27  1  0
 12 28  1  0
 13 14  1  0
 13 15  1  0
 13 29  1  6
 14 30  1  0
 14 31  1  0
 15 32  1  0
 15 33  1  0
 16 34  1  0
 16 35  1  0
 17 18  1  0
 17 36  1  0
 18 37  1  0
M  END
>  <i_m_ct_stereo_status>  (224) 
1

>  <s_m_source_file>  (224) 
/var/tmp/pbs.5083858.sched01/tmpba25mbhw/952bd64zhe.sdf

>  <i_m_source_file_index>  (224) 
1

>  <i_lp_mmshare_version>  (224) 
48012

>  <i_f3d_flags>  (224) 
0

>  <s_epik_input>  (224) 
TiNDYzFbY0hdW2NIXWMoW2NIXVtjSF0xKUMyM1tDSDJdW0NASF00W0NIMl1bQ0BASF0oW0NIMl0zKVtDSDJdW0NASF0oW0NIMl00KVtDSDJdMg==

>  <s_epik_cmdline>  (224) 
J2VwaWtfcHl0aG9uJywgJy1waHQnLCAnMi4wJywgJy1waCcsICc3LjAnLCAnLXRuJywgJzgnLCAnLW1hJywgJzIwMCcsICctaW1hZScsICc8aW5maWxlLm1hZT4nLCAnLW9tYWUnLCAnPG91dGZpbGUubWFlPic=

>  <r_lp_tautomer_probability>  (224) 
1

>  <r_epik_Ionization_Penalty>  (224) 
0

>  <r_epik_Ionization_Penalty_Charging>  (224) 
0

>  <r_epik_Ionization_Penalty_Neutral>  (224) 
0

>  <r_epik_State_Penalty>  (224) 
-0

>  <r_epik_Charging_Adjusted_Penalty>  (224) 
0

>  <i_epik_Tot_Q>  (224) 
0

>  <i_epik_Tot_abs_Q>  (224) 
0

>  <s_lp_Force_Field>  (224) 
OPLS3e

>  <r_lp_Energy>  (224) 
16.1521

>  <b_lp_Chiralities_Consistent>  (224) 
1

>  <s_lp_Variant>  (224) 
67:0-1

>  <s_i_glide_gridfile>  (224) 
pfpi4k_grid

>  <i_i_glide_lignum>  (224) 
1

>  <i_i_glide_rotatable_bonds>  (224) 
2

>  <r_i_docking_score>  (224) 
-2.85763

>  <r_i_glide_ligand_efficiency>  (224) 
-0.158757

>  <r_i_glide_ligand_efficiency_sa>  (224) 
-0.416062

>  <r_i_glide_ligand_efficiency_ln>  (224) 
-0.734539

>  <r_i_glide_gscore>  (224) 
-2.85763

>  <r_i_glide_lipo>  (224) 
-0.229364

>  <r_i_glide_hbond>  (224) 
0

>  <r_i_glide_metal>  (224) 
-0

>  <r_i_glide_rewards>  (224) 
-1.79087

>  <r_i_glide_evdw>  (224) 
-21.0048

>  <r_i_glide_ecoul>  (224) 
-0.472859

>  <r_i_glide_erotb>  (224) 
0.306005

>  <r_i_glide_esite>  (224) 
-0.0222371

>  <r_i_glide_emodel>  (224) 
-25.668

>  <r_i_glide_energy>  (224) 
-21.4776

>  <r_i_glide_einternal>  (224) 
0.0722676

>  <r_i_glide_intrahb_reward>  (224) 
-0

>  <i_i_glide_confnum>  (224) 
1

>  <i_i_glide_posenum>  (224) 
22

>  <r_i_glide_eff_state_penalty>  (224) 
0

>  <ligand_id>  (224) 
67

>  <original_smiles>  (224) 
N#Cc1ccc(C23CC4CC(CC(C4)C2)C3)cc1

>  <smiles>  (224) 
[H]c1c([H])c(C23C([H])([H])C4([H])C([H])([H])C([H])(C([H])([H])C([H])(C4([H])[H])C2([H])[H])C3([H])[H])c([H])c([H])c1C#N

$$$$
68:0:0
     RDKit          3D

 42 45  0  0  1  0  0  0  0  0999 V2000
    3.1153   -1.3731    1.5539 C   0  0  0  0  0  0  0  0  0  0  0  0
    4.5995   -1.5150    1.1652 C   0  0  2  0  0  0  0  0  0  0  0  0
    4.9905   -0.7999   -0.1531 C   0  0  0  0  0  0  0  0  0  0  0  0
    5.0540   -1.6874   -1.4201 C   0  0  2  0  0  0  0  0  0  0  0  0
    3.8419   -1.6986   -2.3772 C   0  0  1  0  0  0  0  0  0  0  0  0
    3.7543   -0.4830   -3.3190 C   0  0  0  0  0  0  0  0  0  0  0  0
    4.1114   -2.9822   -3.1356 C   0  0  0  0  0  0  0  0  0  0  0  0
    3.5997   -3.2438   -4.2137 O   0  0  0  0  0  0  0  0  0  0  0  0
    5.1726   -3.8533   -2.4994 C   0  0  0  0  0  0  0  0  0  0  0  0
    5.5112   -3.1471   -1.1856 C   0  0  2  0  0  0  0  0  0  0  0  0
    4.8564   -3.8181    0.0551 C   0  0  2  0  0  0  0  0  0  0  0  0
    3.4552   -3.8566   -0.1772 O   0  0  0  0  0  0  0  0  0  0  0  0
    2.7743   -4.9650    0.6163 O   0  0  0  0  0  0  0  0  0  0  0  0
    3.6251   -5.5068    1.6211 C   0  0  2  0  0  0  0  0  0  0  0  0
    2.8429   -6.7315    2.1192 C   0  0  0  0  0  0  0  0  0  0  0  0
    3.8577   -4.5475    2.8079 C   0  0  0  0  0  0  0  0  0  0  0  0
    5.0536   -3.6142    2.6379 C   0  0  0  0  0  0  0  0  0  0  0  0
    5.2034   -2.9315    1.2772 C   0  0  2  0  0  0  0  0  0  0  0  0
    4.8599   -6.0191    1.1449 O   0  0  0  0  0  0  0  0  0  0  0  0
    5.4888   -5.0964    0.0994 O   0  0  0  0  0  0  0  0  0  0  0  0
    2.4474   -1.8954    0.8773 H   0  0  0  0  0  0  0  0  0  0  0  0
    2.8204   -0.3256    1.5783 H   0  0  0  0  0  0  0  0  0  0  0  0
    2.9552   -1.7552    2.5611 H   0  0  0  0  0  0  0  0  0  0  0  0
    5.0966   -0.9251    1.9289 H   0  0  0  0  0  0  0  0  0  0  0  0
    4.2372   -0.0409   -0.3337 H   0  0  0  0  0  0  0  0  0  0  0  0
    5.9477   -0.2675   -0.0132 H   0  0  0  0  0  0  0  0  0  0  0  0
    5.8407   -1.2345   -2.0173 H   0  0  0  0  0  0  0  0  0  0  0  0
    2.9123   -1.8344   -1.8268 H   0  0  0  0  0  0  0  0  0  0  0  0
    2.8711   -0.5559   -3.9478 H   0  0  0  0  0  0  0  0  0  0  0  0
    4.6187   -0.3737   -3.9706 H   0  0  0  0  0  0  0  0  0  0  0  0
    3.6734    0.4328   -2.7436 H   0  0  0  0  0  0  0  0  0  0  0  0
    4.8147   -4.8701   -2.3736 H   0  0  0  0  0  0  0  0  0  0  0  0
    6.0374   -3.8581   -3.1658 H   0  0  0  0  0  0  0  0  0  0  0  0
    6.5964   -3.1756   -1.0494 H   0  0  0  0  0  0  0  0  0  0  0  0
    2.6322   -7.4052    1.2878 H   0  0  0  0  0  0  0  0  0  0  0  0
    1.8866   -6.4559    2.5653 H   0  0  0  0  0  0  0  0  0  0  0  0
    3.4042   -7.3042    2.8596 H   0  0  0  0  0  0  0  0  0  0  0  0
    2.9406   -4.0030    3.0203 H   0  0  0  0  0  0  0  0  0  0  0  0
    4.0625   -5.1410    3.7008 H   0  0  0  0  0  0  0  0  0  0  0  0
    5.0529   -2.8616    3.4227 H   0  0  0  0  0  0  0  0  0  0  0  0
    5.9546   -4.2003    2.8067 H   0  0  0  0  0  0  0  0  0  0  0  0
    6.2775   -2.7598    1.2036 H   0  0  0  0  0  0  0  0  0  0  0  0
  1  2  1  0
  1 21  1  0
  1 22  1  0
  1 23  1  0
  2 18  1  0
  2  3  1  0
  2 24  1  1
  3  4  1  0
  3 25  1  0
  3 26  1  0
  4 10  1  0
  4  5  1  0
  4 27  1  6
  5  6  1  0
  5  7  1  0
  5 28  1  1
  6 29  1  0
  6 30  1  0
  6 31  1  0
  7  8  2  0
  7  9  1  0
  9 10  1  0
  9 32  1  0
  9 33  1  0
 10 11  1  0
 10 34  1  1
 11 18  1  0
 11 20  1  1
 11 12  1  0
 12 13  1  0
 13 14  1  0
 14 15  1  1
 14 16  1  0
 14 19  1  0
 15 35  1  0
 15 36  1  0
 15 37  1  0
 16 17  1  0
 16 38  1  0
 16 39  1  0
 17 18  1  0
 17 40  1  0
 17 41  1  0
 18 42  1  6
 19 20  1  0
M  END
>  <i_m_ct_stereo_status>  (225) 
1

>  <s_m_source_file>  (225) 
/var/tmp/pbs.5083858.sched01/tmpba25mbhw/952bd64zhe.sdf

>  <i_m_source_file_index>  (225) 
2

>  <i_lp_mmshare_version>  (225) 
48012

>  <i_f3d_flags>  (225) 
0

>  <s_epik_input>  (225) 
Tz1DKFtDSDJdMSlbQ0BIXShbQ0gzXSlbQ0BIXShbQ0BIXTFbQ0BdMjM0KVtDSDJdW0NAQEhdKFtDSDNdKVtDQEhdM1tDSDJdW0NIMl1bQ0BdKE9PMikoW0NIM10pT080

>  <s_epik_cmdline>  (225) 
J2VwaWtfcHl0aG9uJywgJy1waHQnLCAnMi4wJywgJy1waCcsICc3LjAnLCAnLXRuJywgJzgnLCAnLW1hJywgJzIwMCcsICctaW1hZScsICc8aW5maWxlLm1hZT4nLCAnLW9tYWUnLCAnPG91dGZpbGUubWFlPic=

>  <r_lp_tautomer_probability>  (225) 
1

>  <r_epik_Ionization_Penalty>  (225) 
7.72247e-14

>  <r_epik_Ionization_Penalty_Charging>  (225) 
0

>  <r_epik_Ionization_Penalty_Neutral>  (225) 
7.72247e-14

>  <r_epik_State_Penalty>  (225) 
-0

>  <r_epik_Charging_Adjusted_Penalty>  (225) 
0

>  <i_epik_Tot_Q>  (225) 
0

>  <i_epik_Tot_abs_Q>  (225) 
0

>  <s_lp_Force_Field>  (225) 
OPLS3e

>  <r_lp_Energy>  (225) 
13.3245

>  <b_lp_Chiralities_Consistent>  (225) 
1

>  <s_lp_Variant>  (225) 
68:0-1

>  <s_i_glide_gridfile>  (225) 
pfpi4k_grid

>  <i_i_glide_lignum>  (225) 
2

>  <i_i_glide_rotatable_bonds>  (225) 
0

>  <r_i_docking_score>  (225) 
-3.73984

>  <r_i_glide_ligand_efficiency>  (225) 
-0.186992

>  <r_i_glide_ligand_efficiency_sa>  (225) 
-0.507575

>  <r_i_glide_ligand_efficiency_ln>  (225) 
-0.93596

>  <r_i_glide_gscore>  (225) 
-3.73984

>  <r_i_glide_lipo>  (225) 
-0.383989

>  <r_i_glide_hbond>  (225) 
-0.149916

>  <r_i_glide_metal>  (225) 
-0

>  <r_i_glide_rewards>  (225) 
-1.68395

>  <r_i_glide_evdw>  (225) 
-26.4995

>  <r_i_glide_ecoul>  (225) 
-1.31346

>  <r_i_glide_erotb>  (225) 
0

>  <r_i_glide_esite>  (225) 
0

>  <r_i_glide_emodel>  (225) 
-32.0695

>  <r_i_glide_energy>  (225) 
-27.8129

>  <r_i_glide_einternal>  (225) 
0

>  <r_i_glide_intrahb_reward>  (225) 
-0

>  <i_i_glide_confnum>  (225) 
1

>  <i_i_glide_posenum>  (225) 
14

>  <r_i_glide_eff_state_penalty>  (225) 
0

>  <ligand_id>  (225) 
68

>  <original_smiles>  (225) 
CC1CC2C(C)C(=O)CC2C23OOC(C)(CCC12)OO3

>  <smiles>  (225) 
[H]C([H])([H])C12OOC3(OO1)C1([H])C([H])([H])C(=O)C([H])(C([H])([H])[H])C1([H])C([H])([H])C([H])(C([H])([H])[H])C3([H])C([H])([H])C2([H])[H]

$$$$
68:0:1
     RDKit          3D

 42 45  0  0  1  0  0  0  0  0999 V2000
    6.7336   -1.4321    0.4814 C   0  0  0  0  0  0  0  0  0  0  0  0
    6.1346   -2.8049    0.8374 C   0  0  2  0  0  0  0  0  0  0  0  0
    6.0187   -3.7503   -0.3851 C   0  0  0  0  0  0  0  0  0  0  0  0
    4.6380   -3.8734   -1.0598 C   0  0  2  0  0  0  0  0  0  0  0  0
    4.4082   -3.0463   -2.3424 C   0  0  1  0  0  0  0  0  0  0  0  0
    5.0102   -3.6765   -3.5931 C   0  0  0  0  0  0  0  0  0  0  0  0
    2.8932   -3.0467   -2.4226 C   0  0  0  0  0  0  0  0  0  0  0  0
    2.2649   -2.7369   -3.4424 O   0  0  0  0  0  0  0  0  0  0  0  0
    2.2486   -3.4796   -1.1291 C   0  0  0  0  0  0  0  0  0  0  0  0
    3.4152   -3.6612   -0.1478 C   0  0  2  0  0  0  0  0  0  0  0  0
    3.5717   -2.4850    0.8544 C   0  0  2  0  0  0  0  0  0  0  0  0
    3.7355   -1.2844    0.1137 O   0  0  0  0  0  0  0  0  0  0  0  0
    3.3151   -0.0566    0.8884 O   0  0  0  0  0  0  0  0  0  0  0  0
    3.1468   -0.3035    2.2780 C   0  0  2  0  0  0  0  0  0  0  0  0
    2.4992    0.9810    2.8080 C   0  0  0  0  0  0  0  0  0  0  0  0
    4.4865   -0.5460    3.0009 C   0  0  0  0  0  0  0  0  0  0  0  0
    4.9429   -2.0042    3.0111 C   0  0  0  0  0  0  0  0  0  0  0  0
    4.8393   -2.7777    1.6936 C   0  0  2  0  0  0  0  0  0  0  0  0
    2.2369   -1.3478    2.5835 O   0  0  0  0  0  0  0  0  0  0  0  0
    2.3739   -2.5287    1.6346 O   0  0  0  0  0  0  0  0  0  0  0  0
    6.1049   -0.8271   -0.1668 H   0  0  0  0  0  0  0  0  0  0  0  0
    7.7078   -1.5555    0.0072 H   0  0  0  0  0  0  0  0  0  0  0  0
    6.9217   -0.8691    1.3926 H   0  0  0  0  0  0  0  0  0  0  0  0
    6.9023   -3.2526    1.4673 H   0  0  0  0  0  0  0  0  0  0  0  0
    6.7321   -3.4344   -1.1392 H   0  0  0  0  0  0  0  0  0  0  0  0
    6.3476   -4.7527   -0.0756 H   0  0  0  0  0  0  0  0  0  0  0  0
    4.5977   -4.9106   -1.3903 H   0  0  0  0  0  0  0  0  0  0  0  0
    4.7417   -2.0134   -2.2323 H   0  0  0  0  0  0  0  0  0  0  0  0
    4.7387   -3.0804   -4.4533 H   0  0  0  0  0  0  0  0  0  0  0  0
    4.6355   -4.6809   -3.7873 H   0  0  0  0  0  0  0  0  0  0  0  0
    6.0964   -3.7261   -3.5274 H   0  0  0  0  0  0  0  0  0  0  0  0
    1.5467   -2.7403   -0.7825 H   0  0  0  0  0  0  0  0  0  0  0  0
    1.7189   -4.4141   -1.3068 H   0  0  0  0  0  0  0  0  0  0  0  0
    3.2407   -4.5700    0.4314 H   0  0  0  0  0  0  0  0  0  0  0  0
    1.5699    1.1802    2.2717 H   0  0  0  0  0  0  0  0  0  0  0  0
    3.1502    1.8481    2.6733 H   0  0  0  0  0  0  0  0  0  0  0  0
    2.2590    0.9004    3.8691 H   0  0  0  0  0  0  0  0  0  0  0  0
    5.2488    0.1169    2.5944 H   0  0  0  0  0  0  0  0  0  0  0  0
    4.3725   -0.2529    4.0483 H   0  0  0  0  0  0  0  0  0  0  0  0
    5.9624   -2.0579    3.3735 H   0  0  0  0  0  0  0  0  0  0  0  0
    4.3456   -2.5380    3.7479 H   0  0  0  0  0  0  0  0  0  0  0  0
    4.7293   -3.8112    2.0196 H   0  0  0  0  0  0  0  0  0  0  0  0
  1  2  1  0
  1 21  1  0
  1 22  1  0
  1 23  1  0
  2 18  1  0
  2  3  1  0
  2 24  1  1
  3  4  1  0
  3 25  1  0
  3 26  1  0
  4 10  1  0
  4  5  1  0
  4 27  1  6
  5  6  1  0
  5  7  1  0
  5 28  1  1
  6 29  1  0
  6 30  1  0
  6 31  1  0
  7  8  2  0
  7  9  1  0
  9 10  1  0
  9 32  1  0
  9 33  1  0
 10 11  1  0
 10 34  1  1
 11 18  1  0
 11 20  1  1
 11 12  1  0
 12 13  1  0
 13 14  1  0
 14 15  1  1
 14 16  1  0
 14 19  1  0
 15 35  1  0
 15 36  1  0
 15 37  1  0
 16 17  1  0
 16 38  1  0
 16 39  1  0
 17 18  1  0
 17 40  1  0
 17 41  1  0
 18 42  1  1
 19 20  1  0
M  END
>  <i_m_ct_stereo_status>  (226) 
1

>  <s_m_source_file>  (226) 
/var/tmp/pbs.5083858.sched01/tmpba25mbhw/952bd64zhe.sdf

>  <i_m_source_file_index>  (226) 
2

>  <i_lp_mmshare_version>  (226) 
48012

>  <i_f3d_flags>  (226) 
0

>  <s_epik_input>  (226) 
Tz1DKFtDSDJdMSlbQ0BIXShbQ0gzXSlbQ0BIXShbQ0BIXTFbQ0BdMjM0KVtDSDJdW0NAQEhdKFtDSDNdKVtDQEhdM1tDSDJdW0NIMl1bQ0BdKE9PMikoW0NIM10pT080

>  <s_epik_cmdline>  (226) 
J2VwaWtfcHl0aG9uJywgJy1waHQnLCAnMi4wJywgJy1waCcsICc3LjAnLCAnLXRuJywgJzgnLCAnLW1hJywgJzIwMCcsICctaW1hZScsICc8aW5maWxlLm1hZT4nLCAnLW9tYWUnLCAnPG91dGZpbGUubWFlPic=

>  <r_lp_tautomer_probability>  (226) 
1

>  <r_epik_Ionization_Penalty>  (226) 
7.72247e-14

>  <r_epik_Ionization_Penalty_Charging>  (226) 
0

>  <r_epik_Ionization_Penalty_Neutral>  (226) 
7.72247e-14

>  <r_epik_State_Penalty>  (226) 
-0

>  <r_epik_Charging_Adjusted_Penalty>  (226) 
0

>  <i_epik_Tot_Q>  (226) 
0

>  <i_epik_Tot_abs_Q>  (226) 
0

>  <s_lp_Force_Field>  (226) 
OPLS3e

>  <r_lp_Energy>  (226) 
13.3245

>  <b_lp_Chiralities_Consistent>  (226) 
1

>  <s_lp_Variant>  (226) 
68:0-1

>  <s_i_glide_gridfile>  (226) 
pfpi4k_grid

>  <i_i_glide_lignum>  (226) 
2

>  <i_i_glide_rotatable_bonds>  (226) 
0

>  <r_i_docking_score>  (226) 
-3.05773

>  <r_i_glide_ligand_efficiency>  (226) 
-0.152887

>  <r_i_glide_ligand_efficiency_sa>  (226) 
-0.414998

>  <r_i_glide_ligand_efficiency_ln>  (226) 
-0.76525

>  <r_i_glide_gscore>  (226) 
-3.05773

>  <r_i_glide_lipo>  (226) 
-0.468716

>  <r_i_glide_hbond>  (226) 
0

>  <r_i_glide_metal>  (226) 
-0

>  <r_i_glide_rewards>  (226) 
-1.4841

>  <r_i_glide_evdw>  (226) 
-24.073

>  <r_i_glide_ecoul>  (226) 
0.940667

>  <r_i_glide_erotb>  (226) 
0

>  <r_i_glide_esite>  (226) 
-0.042369

>  <r_i_glide_emodel>  (226) 
-26.26

>  <r_i_glide_energy>  (226) 
-23.1323

>  <r_i_glide_einternal>  (226) 
0

>  <r_i_glide_intrahb_reward>  (226) 
-0

>  <i_i_glide_confnum>  (226) 
2

>  <i_i_glide_posenum>  (226) 
28

>  <r_i_glide_eff_state_penalty>  (226) 
0

>  <ligand_id>  (226) 
68

>  <original_smiles>  (226) 
CC1CC2C(C)C(=O)CC2C23OOC(C)(CCC12)OO3

>  <smiles>  (226) 
[H]C([H])([H])C12OOC3(OO1)C1([H])C([H])([H])C(=O)C([H])(C([H])([H])[H])C1([H])C([H])([H])C([H])(C([H])([H])[H])C3([H])C([H])([H])C2([H])[H]

$$$$
68:0:2
     RDKit          3D

 42 45  0  0  1  0  0  0  0  0999 V2000
    4.1071   -1.2634    1.3781 C   0  0  0  0  0  0  0  0  0  0  0  0
    5.2659   -1.6581    0.4548 C   0  0  2  0  0  0  0  0  0  0  0  0
    5.2058   -0.8877   -0.8788 C   0  0  0  0  0  0  0  0  0  0  0  0
    4.7150   -1.6127   -2.1323 C   0  0  2  0  0  0  0  0  0  0  0  0
    3.3092   -1.2478   -2.6186 C   0  0  1  0  0  0  0  0  0  0  0  0
    3.3135    0.0024   -3.4955 C   0  0  0  0  0  0  0  0  0  0  0  0
    3.0013   -2.4426   -3.4134 C   0  0  0  0  0  0  0  0  0  0  0  0
    1.9265   -2.6044   -4.0388 O   0  0  0  0  0  0  0  0  0  0  0  0
    4.0329   -3.4936   -3.3735 C   0  0  0  0  0  0  0  0  0  0  0  0
    4.9249   -3.1212   -2.1759 C   0  0  2  0  0  0  0  0  0  0  0  0
    4.5674   -3.8076   -0.7917 C   0  0  2  0  0  0  0  0  0  0  0  0
    3.2046   -3.5645   -0.5009 O   0  0  0  0  0  0  0  0  0  0  0  0
    2.6187   -4.5537    0.5039 O   0  0  0  0  0  0  0  0  0  0  0  0
    3.6024   -5.3834    1.0839 C   0  0  2  0  0  0  0  0  0  0  0  0
    2.7636   -6.4788    1.7992 C   0  0  0  0  0  0  0  0  0  0  0  0
    4.4708   -4.6465    2.1329 C   0  0  0  0  0  0  0  0  0  0  0  0
    5.7126   -3.9723    1.5524 C   0  0  0  0  0  0  0  0  0  0  0  0
    5.5161   -3.1644    0.2616 C   0  0  2  0  0  0  0  0  0  0  0  0
    4.3971   -6.0745    0.1513 O   0  0  0  0  0  0  0  0  0  0  0  0
    4.9420   -5.1623   -0.9558 O   0  0  0  0  0  0  0  0  0  0  0  0
    3.1375   -1.5445    0.9643 H   0  0  0  0  0  0  0  0  0  0  0  0
    4.1095   -0.1842    1.5344 H   0  0  0  0  0  0  0  0  0  0  0  0
    4.2308   -1.7239    2.3575 H   0  0  0  0  0  0  0  0  0  0  0  0
    6.1530   -1.2728    0.9603 H   0  0  0  0  0  0  0  0  0  0  0  0
    4.6130    0.0206   -0.7431 H   0  0  0  0  0  0  0  0  0  0  0  0
    6.2194   -0.5753   -1.1088 H   0  0  0  0  0  0  0  0  0  0  0  0
    5.2915   -1.2267   -2.9587 H   0  0  0  0  0  0  0  0  0  0  0  0
    2.6106   -1.2019   -1.7607 H   0  0  0  0  0  0  0  0  0  0  0  0
    2.2693    0.2646   -3.7180 H   0  0  0  0  0  0  0  0  0  0  0  0
    3.8666   -0.0561   -4.4348 H   0  0  0  0  0  0  0  0  0  0  0  0
    3.7998    0.7868   -2.9147 H   0  0  0  0  0  0  0  0  0  0  0  0
    3.3455   -4.2660   -3.1464 H   0  0  0  0  0  0  0  0  0  0  0  0
    4.5931   -3.6143   -4.3310 H   0  0  0  0  0  0  0  0  0  0  0  0
    5.9566   -3.3670   -2.4096 H   0  0  0  0  0  0  0  0  0  0  0  0
    2.1193   -6.9785    1.0752 H   0  0  0  0  0  0  0  0  0  0  0  0
    2.1339   -6.0573    2.5768 H   0  0  0  0  0  0  0  0  0  0  0  0
    3.4044   -7.2373    2.2453 H   0  0  0  0  0  0  0  0  0  0  0  0
    3.8557   -3.9481    2.6869 H   0  0  0  0  0  0  0  0  0  0  0  0
    4.8305   -5.3705    2.8551 H   0  0  0  0  0  0  0  0  0  0  0  0
    6.1716   -3.3337    2.3070 H   0  0  0  0  0  0  0  0  0  0  0  0
    6.4527   -4.7425    1.3447 H   0  0  0  0  0  0  0  0  0  0  0  0
    6.4975   -3.2154   -0.2054 H   0  0  0  0  0  0  0  0  0  0  0  0
  1  2  1  0
  1 21  1  0
  1 22  1  0
  1 23  1  0
  2 18  1  0
  2  3  1  0
  2 24  1  1
  3  4  1  0
  3 25  1  0
  3 26  1  0
  4 10  1  0
  4  5  1  0
  4 27  1  6
  5  6  1  0
  5  7  1  0
  5 28  1  1
  6 29  1  0
  6 30  1  0
  6 31  1  0
  7  8  2  0
  7  9  1  0
  9 10  1  0
  9 32  1  0
  9 33  1  0
 10 11  1  0
 10 34  1  6
 11 18  1  0
 11 20  1  6
 11 12  1  0
 12 13  1  0
 13 14  1  0
 14 15  1  1
 14 16  1  0
 14 19  1  0
 15 35  1  0
 15 36  1  0
 15 37  1  0
 16 17  1  0
 16 38  1  0
 16 39  1  0
 17 18  1  0
 17 40  1  0
 17 41  1  0
 18 42  1  6
 19 20  1  0
M  END
>  <i_m_ct_stereo_status>  (227) 
1

>  <s_m_source_file>  (227) 
/var/tmp/pbs.5083858.sched01/tmpba25mbhw/952bd64zhe.sdf

>  <i_m_source_file_index>  (227) 
2

>  <i_lp_mmshare_version>  (227) 
48012

>  <i_f3d_flags>  (227) 
0

>  <s_epik_input>  (227) 
Tz1DKFtDSDJdMSlbQ0BIXShbQ0gzXSlbQ0BIXShbQ0BIXTFbQ0BdMjM0KVtDSDJdW0NAQEhdKFtDSDNdKVtDQEhdM1tDSDJdW0NIMl1bQ0BdKE9PMikoW0NIM10pT080

>  <s_epik_cmdline>  (227) 
J2VwaWtfcHl0aG9uJywgJy1waHQnLCAnMi4wJywgJy1waCcsICc3LjAnLCAnLXRuJywgJzgnLCAnLW1hJywgJzIwMCcsICctaW1hZScsICc8aW5maWxlLm1hZT4nLCAnLW9tYWUnLCAnPG91dGZpbGUubWFlPic=

>  <r_lp_tautomer_probability>  (227) 
1

>  <r_epik_Ionization_Penalty>  (227) 
7.72247e-14

>  <r_epik_Ionization_Penalty_Charging>  (227) 
0

>  <r_epik_Ionization_Penalty_Neutral>  (227) 
7.72247e-14

>  <r_epik_State_Penalty>  (227) 
-0

>  <r_epik_Charging_Adjusted_Penalty>  (227) 
0

>  <i_epik_Tot_Q>  (227) 
0

>  <i_epik_Tot_abs_Q>  (227) 
0

>  <s_lp_Force_Field>  (227) 
OPLS3e

>  <r_lp_Energy>  (227) 
13.3245

>  <b_lp_Chiralities_Consistent>  (227) 
1

>  <s_lp_Variant>  (227) 
68:0-1

>  <s_i_glide_gridfile>  (227) 
pfpi4k_grid

>  <i_i_glide_lignum>  (227) 
2

>  <i_i_glide_rotatable_bonds>  (227) 
0

>  <r_i_docking_score>  (227) 
-2.72968

>  <r_i_glide_ligand_efficiency>  (227) 
-0.136484

>  <r_i_glide_ligand_efficiency_sa>  (227) 
-0.370475

>  <r_i_glide_ligand_efficiency_ln>  (227) 
-0.683149

>  <r_i_glide_gscore>  (227) 
-2.72968

>  <r_i_glide_lipo>  (227) 
-0.411389

>  <r_i_glide_hbond>  (227) 
0

>  <r_i_glide_metal>  (227) 
-0

>  <r_i_glide_rewards>  (227) 
-1.73036

>  <r_i_glide_evdw>  (227) 
-18.8508

>  <r_i_glide_ecoul>  (227) 
2.36405

>  <r_i_glide_erotb>  (227) 
0

>  <r_i_glide_esite>  (227) 
0

>  <r_i_glide_emodel>  (227) 
-17.2822

>  <r_i_glide_energy>  (227) 
-16.4867

>  <r_i_glide_einternal>  (227) 
0

>  <r_i_glide_intrahb_reward>  (227) 
-0

>  <i_i_glide_confnum>  (227) 
2

>  <i_i_glide_posenum>  (227) 
35

>  <r_i_glide_eff_state_penalty>  (227) 
0

>  <ligand_id>  (227) 
68

>  <original_smiles>  (227) 
CC1CC2C(C)C(=O)CC2C23OOC(C)(CCC12)OO3

>  <smiles>  (227) 
[H]C([H])([H])C12OOC3(OO1)C1([H])C([H])([H])C(=O)C([H])(C([H])([H])[H])C1([H])C([H])([H])C([H])(C([H])([H])[H])C3([H])C([H])([H])C2([H])[H]

$$$$
69:0:0
     RDKit          3D

 66 71  0  0  1  0  0  0  0  0999 V2000
    4.7643   -7.4832    0.7139 C   0  0  0  0  0  0  0  0  0  0  0  0
    4.7166   -7.1002    2.2208 C   0  0  2  0  0  0  0  0  0  0  0  0
    4.5725   -5.5403    2.3327 C   0  0  0  0  0  0  0  0  0  0  0  0
    5.7837   -4.7198    1.8359 C   0  0  1  0  0  0  0  0  0  0  0  0
    5.6299   -3.2355    2.0907 C   0  0  0  0  0  0  0  0  0  0  0  0
    4.9767   -2.6061    3.1998 C   0  0  0  0  0  0  0  0  0  0  0  0
    5.1264   -1.2605    3.0272 C   0  0  0  0  0  0  0  0  0  0  0  0
    5.8306   -0.9976    1.8983 O   0  0  0  0  0  0  0  0  0  0  0  0
    6.1241   -2.2065    1.3513 C   0  0  0  0  0  0  0  0  0  0  0  0
    6.9645   -5.2072    2.4598 O   0  0  0  0  0  0  0  0  0  0  0  0
    7.2560   -6.5469    2.1825 C   0  0  1  0  0  0  0  0  0  0  0  0
    8.5366   -6.9034    2.6612 O   0  0  0  0  0  0  0  0  0  0  0  0
    6.1365   -7.4458    2.7914 C   0  0  1  0  0  0  0  0  0  0  0  0
    6.1510   -7.3468    4.3099 C   0  0  0  0  0  0  0  0  0  0  0  0
    5.1820   -8.3695    4.8767 C   0  0  0  0  0  0  0  0  0  0  0  0
    3.6570   -8.1481    4.5485 C   0  0  2  0  0  0  0  0  0  0  0  0
    3.2367   -6.9982    5.5161 C   0  0  0  0  0  0  0  0  0  0  0  0
    2.9355   -9.5211    4.8995 C   0  0  2  0  0  0  0  0  0  0  0  0
    3.6020  -10.2160    5.9528 O   0  0  0  0  0  0  0  0  0  0  0  0
    3.1025  -10.3709    3.6273 C   0  0  1  0  0  0  0  0  0  0  0  0
    1.8195  -11.1782    3.4100 C   0  0  0  0  0  0  0  0  0  0  0  0
    0.8897  -10.8553    4.5772 C   0  0  0  0  0  0  0  0  0  0  0  0
    1.3832   -9.5340    5.2039 C   0  0  1  0  0  0  0  0  0  0  0  0
    1.1328   -9.5773    6.6083 O   0  0  0  0  0  0  0  0  0  0  0  0
    0.7636   -8.3837    4.6843 O   0  0  0  0  0  0  0  0  0  0  0  0
   -0.0319   -8.3402    3.5122 C   0  0  0  0  0  0  0  0  0  0  0  0
    0.8410   -8.1155    2.2765 C   0  0  1  0  0  0  0  0  0  0  0  0
    0.0495   -7.4838    1.2855 O   0  0  0  0  0  0  0  0  0  0  0  0
    2.1293   -7.2656    2.4706 C   0  0  1  0  0  0  0  0  0  0  0  0
    1.7680   -6.0883    3.1669 O   0  0  0  0  0  0  0  0  0  0  0  0
    3.5163   -7.9201    2.9565 C   0  0  1  0  0  0  0  0  0  0  0  0
    3.5764   -9.4257    2.4995 C   0  0  0  0  0  0  0  0  0  0  0  0
    3.8176   -7.4563    0.1976 H   0  0  0  0  0  0  0  0  0  0  0  0
    5.1742   -8.4775    0.5353 H   0  0  0  0  0  0  0  0  0  0  0  0
    5.3720   -6.8030    0.1346 H   0  0  0  0  0  0  0  0  0  0  0  0
    3.7058   -5.1877    1.7767 H   0  0  0  0  0  0  0  0  0  0  0  0
    4.3894   -5.2860    3.3725 H   0  0  0  0  0  0  0  0  0  0  0  0
    5.8942   -4.8020    0.7531 H   0  0  0  0  0  0  0  0  0  0  0  0
    4.4734   -3.0713    4.0319 H   0  0  0  0  0  0  0  0  0  0  0  0
    4.8200   -0.3941    3.6001 H   0  0  0  0  0  0  0  0  0  0  0  0
    6.7211   -2.1440    0.4475 H   0  0  0  0  0  0  0  0  0  0  0  0
    7.3191   -6.6699    1.1069 H   0  0  0  0  0  0  0  0  0  0  0  0
    9.1406   -7.0581    1.9301 H   0  0  0  0  0  0  0  0  0  0  0  0
    6.4053   -8.4647    2.5149 H   0  0  0  0  0  0  0  0  0  0  0  0
    7.1493   -7.5746    4.6903 H   0  0  0  0  0  0  0  0  0  0  0  0
    5.9282   -6.3398    4.6685 H   0  0  0  0  0  0  0  0  0  0  0  0
    5.5120   -9.3535    4.5266 H   0  0  0  0  0  0  0  0  0  0  0  0
    5.3377   -8.3959    5.9550 H   0  0  0  0  0  0  0  0  0  0  0  0
    2.1746   -6.7830    5.5435 H   0  0  0  0  0  0  0  0  0  0  0  0
    3.7411   -6.0630    5.2929 H   0  0  0  0  0  0  0  0  0  0  0  0
    3.4852   -7.2538    6.5478 H   0  0  0  0  0  0  0  0  0  0  0  0
    3.0827  -10.9771    6.1746 H   0  0  0  0  0  0  0  0  0  0  0  0
    3.9095  -11.0930    3.7815 H   0  0  0  0  0  0  0  0  0  0  0  0
    1.3260  -10.9988    2.4662 H   0  0  0  0  0  0  0  0  0  0  0  0
    2.0490  -12.2415    3.4151 H   0  0  0  0  0  0  0  0  0  0  0  0
   -0.1701  -10.8830    4.3467 H   0  0  0  0  0  0  0  0  0  0  0  0
    1.0436  -11.6430    5.3032 H   0  0  0  0  0  0  0  0  0  0  0  0
    1.1922  -10.4869    6.9049 H   0  0  0  0  0  0  0  0  0  0  0  0
   -0.7492   -9.1428    3.3904 H   0  0  0  0  0  0  0  0  0  0  0  0
   -0.6493   -7.4566    3.6420 H   0  0  0  0  0  0  0  0  0  0  0  0
    1.0810   -9.0625    1.8202 H   0  0  0  0  0  0  0  0  0  0  0  0
   -0.1940   -8.1748    0.6769 H   0  0  0  0  0  0  0  0  0  0  0  0
    2.3044   -6.8939    1.4650 H   0  0  0  0  0  0  0  0  0  0  0  0
    1.6304   -6.3325    4.0759 H   0  0  0  0  0  0  0  0  0  0  0  0
    4.6124   -9.7077    2.3172 H   0  0  0  0  0  0  0  0  0  0  0  0
    3.0897   -9.6267    1.5476 H   0  0  0  0  0  0  0  0  0  0  0  0
  2  1  1  6
  1 33  1  0
  1 34  1  0
  1 35  1  0
  2 13  1  0
  2 31  1  0
  2  3  1  0
  3  4  1  0
  3 36  1  0
  3 37  1  0
  4  5  1  0
  4 10  1  0
  4 38  1  6
  5  9  2  0
  5  6  1  0
  6  7  2  0
  6 39  1  0
  7  8  1  0
  7 40  1  0
  8  9  1  0
  9 41  1  0
 10 11  1  0
 11 12  1  0
 11 13  1  0
 11 42  1  6
 12 43  1  0
 13 14  1  0
 13 44  1  1
 14 15  1  0
 14 45  1  0
 14 46  1  0
 15 16  1  0
 15 47  1  0
 15 48  1  0
 16 31  1  0
 16 17  1  1
 16 18  1  0
 17 49  1  0
 17 50  1  0
 17 51  1  0
 18 23  1  0
 18 19  1  1
 18 20  1  0
 19 52  1  0
 20 32  1  0
 20 21  1  0
 20 53  1  1
 21 22  1  0
 21 54  1  0
 21 55  1  0
 22 23  1  0
 22 56  1  0
 22 57  1  0
 23 24  1  1
 23 25  1  0
 24 58  1  0
 25 26  1  0
 26 27  1  0
 26 59  1  0
 26 60  1  0
 27 28  1  0
 27 29  1  0
 27 61  1  6
 28 62  1  0
 29 30  1  0
 29 31  1  0
 29 63  1  6
 30 64  1  0
 31 32  1  6
 32 65  1  0
 32 66  1  0
M  END
>  <i_m_ct_stereo_status>  (228) 
1

>  <s_m_source_file>  (228) 
/var/tmp/pbs.5083858.sched01/tmpba25mbhw/952bd64zhe.sdf

>  <i_m_source_file_index>  (228) 
3

>  <i_lp_mmshare_version>  (228) 
48012

>  <i_f3d_flags>  (228) 
0

>  <s_epik_input>  (228) 
W2NIXTFvW2NIXVtjSF1jMVtDQEhdKFtDSDJdMilPW0NAQEhdKFtPSF0pW0NASF0oW0NAXTIoW0NAQF0zNDUpW0NIM10pW0NIMl1bQ0gyXVtDQF0zKFtDSDNdKVtDQF02KFtPSF0pW0NASF0oW0NIMl01KVtDSDJdW0NIMl1bQ0BdNihbT0hdKU9bQ0gyXVtDQEBIXShbT0hdKVtDQEhdNFtPSF0=

>  <s_epik_cmdline>  (228) 
J2VwaWtfcHl0aG9uJywgJy1waHQnLCAnMi4wJywgJy1waCcsICc3LjAnLCAnLXRuJywgJzgnLCAnLW1hJywgJzIwMCcsICctaW1hZScsICc8aW5maWxlLm1hZT4nLCAnLW9tYWUnLCAnPG91dGZpbGUubWFlPic=

>  <r_lp_tautomer_probability>  (228) 
1

>  <r_epik_Ionization_Penalty>  (228) 
3.56137e-07

>  <r_epik_Ionization_Penalty_Charging>  (228) 
0

>  <r_epik_Ionization_Penalty_Neutral>  (228) 
3.56137e-07

>  <r_epik_State_Penalty>  (228) 
-0

>  <r_epik_Charging_Adjusted_Penalty>  (228) 
0

>  <i_epik_Tot_Q>  (228) 
0

>  <i_epik_Tot_abs_Q>  (228) 
0

>  <s_epik_Chemistry_Notes>  (228) 
This compound contains an acetal/aminal-like group ( X-CH(R)-Y where X, Y are N, S, or O) that may be acid/base labile, releasing an aldehyde.

>  <s_lp_Force_Field>  (228) 
OPLS3e

>  <r_lp_Energy>  (228) 
98.8005

>  <b_lp_Chiralities_Consistent>  (228) 
1

>  <s_lp_Variant>  (228) 
69:0-1

>  <s_i_glide_gridfile>  (228) 
pfpi4k_grid

>  <i_i_glide_lignum>  (228) 
3

>  <i_i_glide_rotatable_bonds>  (228) 
6

>  <r_i_docking_score>  (228) 
-3.90209

>  <r_i_glide_ligand_efficiency>  (228) 
-0.12194

>  <r_i_glide_ligand_efficiency_sa>  (228) 
-0.387136

>  <r_i_glide_ligand_efficiency_ln>  (228) 
-0.873783

>  <r_i_glide_gscore>  (228) 
-3.90209

>  <r_i_glide_lipo>  (228) 
-0.614559

>  <r_i_glide_hbond>  (228) 
0

>  <r_i_glide_metal>  (228) 
-0

>  <r_i_glide_rewards>  (228) 
-0.358958

>  <r_i_glide_evdw>  (228) 
-26.9666

>  <r_i_glide_ecoul>  (228) 
-10.9492

>  <r_i_glide_erotb>  (228) 
0.0987815

>  <r_i_glide_esite>  (228) 
-0.0366447

>  <r_i_glide_emodel>  (228) 
-45.5642

>  <r_i_glide_energy>  (228) 
-37.9158

>  <r_i_glide_einternal>  (228) 
5.48632

>  <r_i_glide_intrahb_reward>  (228) 
-0

>  <i_i_glide_confnum>  (228) 
2

>  <i_i_glide_posenum>  (228) 
14

>  <r_i_glide_eff_state_penalty>  (228) 
0

>  <ligand_id>  (228) 
69

>  <original_smiles>  (228) 
CC12CC(c3ccoc3)OC(O)C1CCC1(C)C3(O)C4CCC3(O)OCC(O)C(O)C21C4

>  <smiles>  (228) 
[H]OC1([H])OC([H])(c2c([H])oc([H])c2[H])C([H])([H])C2(C([H])([H])[H])C1([H])C([H])([H])C([H])([H])C1(C([H])([H])[H])C3(O[H])C4(O[H])OC([H])([H])C([H])(O[H])C([H])(O[H])C21C([H])([H])C3([H])C([H])([H])C4([H])[H]

$$$$
69:0:1
     RDKit          3D

 66 71  0  0  1  0  0  0  0  0999 V2000
    4.3620   -8.5289    0.9513 C   0  0  0  0  0  0  0  0  0  0  0  0
    4.4202   -7.5058    2.1406 C   0  0  2  0  0  0  0  0  0  0  0  0
    4.4249   -6.0433    1.5634 C   0  0  0  0  0  0  0  0  0  0  0  0
    5.6968   -5.6451    0.7758 C   0  0  1  0  0  0  0  0  0  0  0  0
    5.6835   -4.1958    0.3535 C   0  0  0  0  0  0  0  0  0  0  0  0
    4.7431   -3.5391   -0.4929 C   0  0  0  0  0  0  0  0  0  0  0  0
    5.1483   -2.2331   -0.5907 C   0  0  0  0  0  0  0  0  0  0  0  0
    6.2921   -2.0324    0.1130 O   0  0  0  0  0  0  0  0  0  0  0  0
    6.5984   -3.2316    0.6776 C   0  0  0  0  0  0  0  0  0  0  0  0
    6.8544   -5.9355    1.5527 O   0  0  0  0  0  0  0  0  0  0  0  0
    6.9795   -7.2810    1.8660 C   0  0  1  0  0  0  0  0  0  0  0  0
    8.2241   -7.5488    2.4604 O   0  0  0  0  0  0  0  0  0  0  0  0
    5.8182   -7.7057    2.8107 C   0  0  1  0  0  0  0  0  0  0  0  0
    5.9152   -6.9444    4.1331 C   0  0  0  0  0  0  0  0  0  0  0  0
    4.8791   -7.5071    5.0945 C   0  0  0  0  0  0  0  0  0  0  0  0
    3.3747   -7.2944    4.6947 C   0  0  2  0  0  0  0  0  0  0  0  0
    3.0983   -5.8062    5.0464 C   0  0  0  0  0  0  0  0  0  0  0  0
    2.5397   -8.2936    5.6168 C   0  0  2  0  0  0  0  0  0  0  0  0
    3.1624   -8.5161    6.8849 O   0  0  0  0  0  0  0  0  0  0  0  0
    2.5720   -9.6297    4.8588 C   0  0  1  0  0  0  0  0  0  0  0  0
    1.2070  -10.3230    5.0238 C   0  0  0  0  0  0  0  0  0  0  0  0
    0.3639   -9.4265    5.9328 C   0  0  0  0  0  0  0  0  0  0  0  0
    1.0074   -8.0231    5.8870 C   0  0  1  0  0  0  0  0  0  0  0  0
    0.8046   -7.4217    7.1499 O   0  0  0  0  0  0  0  0  0  0  0  0
    0.4522   -7.1589    4.9378 O   0  0  0  0  0  0  0  0  0  0  0  0
   -0.3589   -7.5548    3.8512 C   0  0  0  0  0  0  0  0  0  0  0  0
    0.4696   -8.0068    2.6501 C   0  0  1  0  0  0  0  0  0  0  0  0
   -0.3391   -7.8105    1.5051 O   0  0  0  0  0  0  0  0  0  0  0  0
    1.8347   -7.2812    2.4376 C   0  0  1  0  0  0  0  0  0  0  0  0
    1.6058   -5.8812    2.5102 O   0  0  0  0  0  0  0  0  0  0  0  0
    3.1766   -7.7871    3.1688 C   0  0  1  0  0  0  0  0  0  0  0  0
    3.0813   -9.3339    3.4305 C   0  0  0  0  0  0  0  0  0  0  0  0
    3.3824   -8.6591    0.5096 H   0  0  0  0  0  0  0  0  0  0  0  0
    4.6805   -9.5309    1.2432 H   0  0  0  0  0  0  0  0  0  0  0  0
    5.0035   -8.2500    0.1203 H   0  0  0  0  0  0  0  0  0  0  0  0
    3.5847   -5.8897    0.8922 H   0  0  0  0  0  0  0  0  0  0  0  0
    4.3191   -5.3222    2.3701 H   0  0  0  0  0  0  0  0  0  0  0  0
    5.7467   -6.1986   -0.1609 H   0  0  0  0  0  0  0  0  0  0  0  0
    3.8708   -3.9576   -0.9754 H   0  0  0  0  0  0  0  0  0  0  0  0
    4.7600   -1.3626   -1.0987 H   0  0  0  0  0  0  0  0  0  0  0  0
    7.4975   -3.2359    1.2760 H   0  0  0  0  0  0  0  0  0  0  0  0
    6.9833   -7.8684    0.9508 H   0  0  0  0  0  0  0  0  0  0  0  0
    8.9120   -7.4627    1.8076 H   0  0  0  0  0  0  0  0  0  0  0  0
    5.9849   -8.7613    3.0169 H   0  0  0  0  0  0  0  0  0  0  0  0
    6.9021   -7.0833    4.5744 H   0  0  0  0  0  0  0  0  0  0  0  0
    5.8028   -5.8674    4.0055 H   0  0  0  0  0  0  0  0  0  0  0  0
    5.1022   -8.5698    5.2157 H   0  0  0  0  0  0  0  0  0  0  0  0
    5.0778   -7.0716    6.0751 H   0  0  0  0  0  0  0  0  0  0  0  0
    2.0621   -5.4980    4.9478 H   0  0  0  0  0  0  0  0  0  0  0  0
    3.6809   -5.1214    4.4371 H   0  0  0  0  0  0  0  0  0  0  0  0
    3.3587   -5.5976    6.0866 H   0  0  0  0  0  0  0  0  0  0  0  0
    2.7958   -9.3135    7.2435 H   0  0  0  0  0  0  0  0  0  0  0  0
    3.3126  -10.2878    5.3178 H   0  0  0  0  0  0  0  0  0  0  0  0
    0.7020  -10.5462    4.0906 H   0  0  0  0  0  0  0  0  0  0  0  0
    1.3362  -11.2948    5.5011 H   0  0  0  0  0  0  0  0  0  0  0  0
   -0.7071   -9.4392    5.7419 H   0  0  0  0  0  0  0  0  0  0  0  0
    0.4803   -9.8077    6.9468 H   0  0  0  0  0  0  0  0  0  0  0  0
    1.2636   -7.9433    7.7967 H   0  0  0  0  0  0  0  0  0  0  0  0
   -1.1561   -8.2510    4.0916 H   0  0  0  0  0  0  0  0  0  0  0  0
   -0.8819   -6.6444    3.5681 H   0  0  0  0  0  0  0  0  0  0  0  0
    0.5995   -9.0774    2.6689 H   0  0  0  0  0  0  0  0  0  0  0  0
   -0.1881   -8.5415    0.9105 H   0  0  0  0  0  0  0  0  0  0  0  0
    2.0043   -7.4171    1.3730 H   0  0  0  0  0  0  0  0  0  0  0  0
    2.4299   -5.4361    2.3688 H   0  0  0  0  0  0  0  0  0  0  0  0
    4.0772   -9.7712    3.3932 H   0  0  0  0  0  0  0  0  0  0  0  0
    2.5424   -9.8820    2.6623 H   0  0  0  0  0  0  0  0  0  0  0  0
  2  1  1  6
  1 33  1  0
  1 34  1  0
  1 35  1  0
  2 13  1  0
  2 31  1  0
  2  3  1  0
  3  4  1  0
  3 36  1  0
  3 37  1  0
  4  5  1  0
  4 10  1  0
  4 38  1  6
  5  9  2  0
  5  6  1  0
  6  7  2  0
  6 39  1  0
  7  8  1  0
  7 40  1  0
  8  9  1  0
  9 41  1  0
 10 11  1  0
 11 12  1  0
 11 13  1  0
 11 42  1  6
 12 43  1  0
 13 14  1  0
 13 44  1  1
 14 15  1  0
 14 45  1  0
 14 46  1  0
 15 16  1  0
 15 47  1  0
 15 48  1  0
 16 31  1  0
 16 17  1  6
 16 18  1  0
 17 49  1  0
 17 50  1  0
 17 51  1  0
 18 23  1  0
 18 19  1  1
 18 20  1  0
 19 52  1  0
 20 32  1  0
 20 21  1  0
 20 53  1  1
 21 22  1  0
 21 54  1  0
 21 55  1  0
 22 23  1  0
 22 56  1  0
 22 57  1  0
 23 24  1  1
 23 25  1  0
 24 58  1  0
 25 26  1  0
 26 27  1  0
 26 59  1  0
 26 60  1  0
 27 28  1  0
 27 29  1  0
 27 61  1  1
 28 62  1  0
 29 30  1  0
 29 31  1  0
 29 63  1  6
 30 64  1  0
 31 32  1  1
 32 65  1  0
 32 66  1  0
M  END
>  <i_m_ct_stereo_status>  (229) 
1

>  <s_m_source_file>  (229) 
/var/tmp/pbs.5083858.sched01/tmpba25mbhw/952bd64zhe.sdf

>  <i_m_source_file_index>  (229) 
3

>  <i_lp_mmshare_version>  (229) 
48012

>  <i_f3d_flags>  (229) 
0

>  <s_epik_input>  (229) 
W2NIXTFvW2NIXVtjSF1jMVtDQEhdKFtDSDJdMilPW0NAQEhdKFtPSF0pW0NASF0oW0NAXTIoW0NAQF0zNDUpW0NIM10pW0NIMl1bQ0gyXVtDQF0zKFtDSDNdKVtDQF02KFtPSF0pW0NASF0oW0NIMl01KVtDSDJdW0NIMl1bQ0BdNihbT0hdKU9bQ0gyXVtDQEBIXShbT0hdKVtDQEhdNFtPSF0=

>  <s_epik_cmdline>  (229) 
J2VwaWtfcHl0aG9uJywgJy1waHQnLCAnMi4wJywgJy1waCcsICc3LjAnLCAnLXRuJywgJzgnLCAnLW1hJywgJzIwMCcsICctaW1hZScsICc8aW5maWxlLm1hZT4nLCAnLW9tYWUnLCAnPG91dGZpbGUubWFlPic=

>  <r_lp_tautomer_probability>  (229) 
1

>  <r_epik_Ionization_Penalty>  (229) 
3.56137e-07

>  <r_epik_Ionization_Penalty_Charging>  (229) 
0

>  <r_epik_Ionization_Penalty_Neutral>  (229) 
3.56137e-07

>  <r_epik_State_Penalty>  (229) 
-0

>  <r_epik_Charging_Adjusted_Penalty>  (229) 
0

>  <i_epik_Tot_Q>  (229) 
0

>  <i_epik_Tot_abs_Q>  (229) 
0

>  <s_epik_Chemistry_Notes>  (229) 
This compound contains an acetal/aminal-like group ( X-CH(R)-Y where X, Y are N, S, or O) that may be acid/base labile, releasing an aldehyde.

>  <s_lp_Force_Field>  (229) 
OPLS3e

>  <r_lp_Energy>  (229) 
98.8005

>  <b_lp_Chiralities_Consistent>  (229) 
1

>  <s_lp_Variant>  (229) 
69:0-1

>  <s_i_glide_gridfile>  (229) 
pfpi4k_grid

>  <i_i_glide_lignum>  (229) 
3

>  <i_i_glide_rotatable_bonds>  (229) 
6

>  <r_i_docking_score>  (229) 
-3.57403

>  <r_i_glide_ligand_efficiency>  (229) 
-0.111688

>  <r_i_glide_ligand_efficiency_sa>  (229) 
-0.354589

>  <r_i_glide_ligand_efficiency_ln>  (229) 
-0.800323

>  <r_i_glide_gscore>  (229) 
-3.57403

>  <r_i_glide_lipo>  (229) 
-0.375128

>  <r_i_glide_hbond>  (229) 
0

>  <r_i_glide_metal>  (229) 
-0

>  <r_i_glide_rewards>  (229) 
-0.419254

>  <r_i_glide_evdw>  (229) 
-28.7308

>  <r_i_glide_ecoul>  (229) 
-9.49361

>  <r_i_glide_erotb>  (229) 
0.0987815

>  <r_i_glide_esite>  (229) 
-0.0178481

>  <r_i_glide_emodel>  (229) 
-46.3977

>  <r_i_glide_energy>  (229) 
-38.2244

>  <r_i_glide_einternal>  (229) 
3.51776

>  <r_i_glide_intrahb_reward>  (229) 
-0

>  <i_i_glide_confnum>  (229) 
1

>  <i_i_glide_posenum>  (229) 
39

>  <r_i_glide_eff_state_penalty>  (229) 
0

>  <ligand_id>  (229) 
69

>  <original_smiles>  (229) 
CC12CC(c3ccoc3)OC(O)C1CCC1(C)C3(O)C4CCC3(O)OCC(O)C(O)C21C4

>  <smiles>  (229) 
[H]OC1([H])OC([H])(c2c([H])oc([H])c2[H])C([H])([H])C2(C([H])([H])[H])C1([H])C([H])([H])C([H])([H])C1(C([H])([H])[H])C3(O[H])C4(O[H])OC([H])([H])C([H])(O[H])C([H])(O[H])C21C([H])([H])C3([H])C([H])([H])C4([H])[H]

$$$$
69:0:2
     RDKit          3D

 66 71  0  0  1  0  0  0  0  0999 V2000
    4.3440   -8.4614    0.9596 C   0  0  0  0  0  0  0  0  0  0  0  0
    4.3712   -7.3614    2.0802 C   0  0  2  0  0  0  0  0  0  0  0  0
    4.3769   -5.9396    1.4064 C   0  0  0  0  0  0  0  0  0  0  0  0
    5.6646   -5.5831    0.6241 C   0  0  1  0  0  0  0  0  0  0  0  0
    5.6534   -4.1638    0.1082 C   0  0  0  0  0  0  0  0  0  0  0  0
    4.7005   -3.5495   -0.7567 C   0  0  0  0  0  0  0  0  0  0  0  0
    5.1160   -2.2596   -0.9504 C   0  0  0  0  0  0  0  0  0  0  0  0
    6.2804   -2.0251   -0.2882 O   0  0  0  0  0  0  0  0  0  0  0  0
    6.5860   -3.1884    0.3497 C   0  0  0  0  0  0  0  0  0  0  0  0
    6.8123   -5.8149    1.4382 O   0  0  0  0  0  0  0  0  0  0  0  0
    6.9469   -7.1341    1.8490 C   0  0  1  0  0  0  0  0  0  0  0  0
    8.1940   -7.3516    2.4796 O   0  0  0  0  0  0  0  0  0  0  0  0
    5.7611   -7.5007    2.7934 C   0  0  1  0  0  0  0  0  0  0  0  0
    5.8182   -6.6519    4.0629 C   0  0  0  0  0  0  0  0  0  0  0  0
    4.7650   -7.1565    5.0336 C   0  0  0  0  0  0  0  0  0  0  0  0
    3.2657   -6.9889    4.5876 C   0  0  2  0  0  0  0  0  0  0  0  0
    2.9652   -5.4808    4.8338 C   0  0  0  0  0  0  0  0  0  0  0  0
    2.4178   -7.9337    5.5526 C   0  0  2  0  0  0  0  0  0  0  0  0
    3.0376   -8.0793    6.8304 O   0  0  0  0  0  0  0  0  0  0  0  0
    2.4720   -9.3178    4.8892 C   0  0  1  0  0  0  0  0  0  0  0  0
    1.1063  -10.0100    5.0744 C   0  0  0  0  0  0  0  0  0  0  0  0
    0.2354   -9.0616    5.9016 C   0  0  0  0  0  0  0  0  0  0  0  0
    0.8725   -7.6616    5.7722 C   0  0  1  0  0  0  0  0  0  0  0  0
    0.6402   -6.9802    6.9878 O   0  0  0  0  0  0  0  0  0  0  0  0
    0.3291   -6.8681    4.7603 O   0  0  0  0  0  0  0  0  0  0  0  0
   -0.4463   -7.3404    3.6787 C   0  0  0  0  0  0  0  0  0  0  0  0
    0.4121   -7.8599    2.5262 C   0  0  1  0  0  0  0  0  0  0  0  0
   -0.3646   -7.7407    1.3469 O   0  0  0  0  0  0  0  0  0  0  0  0
    1.7735   -7.1386    2.3027 C   0  0  1  0  0  0  0  0  0  0  0  0
    1.5323   -5.7408    2.2817 O   0  0  0  0  0  0  0  0  0  0  0  0
    3.1046   -7.5828    3.0940 C   0  0  1  0  0  0  0  0  0  0  0  0
    3.0103   -9.1103    3.4539 C   0  0  0  0  0  0  0  0  0  0  0  0
    3.3749   -8.6320    0.5082 H   0  0  0  0  0  0  0  0  0  0  0  0
    4.6661   -9.4360    1.3283 H   0  0  0  0  0  0  0  0  0  0  0  0
    4.9996   -8.2324    0.1254 H   0  0  0  0  0  0  0  0  0  0  0  0
    3.5490   -5.8373    0.7082 H   0  0  0  0  0  0  0  0  0  0  0  0
    4.2445   -5.1692    2.1596 H   0  0  0  0  0  0  0  0  0  0  0  0
    5.7340   -6.1974   -0.2732 H   0  0  0  0  0  0  0  0  0  0  0  0
    3.8141   -3.9886   -1.1886 H   0  0  0  0  0  0  0  0  0  0  0  0
    4.7247   -1.4183   -1.5039 H   0  0  0  0  0  0  0  0  0  0  0  0
    7.4956   -3.1651    0.9293 H   0  0  0  0  0  0  0  0  0  0  0  0
    6.9631   -7.7766    0.9734 H   0  0  0  0  0  0  0  0  0  0  0  0
    8.8753   -7.4175    1.8174 H   0  0  0  0  0  0  0  0  0  0  0  0
    5.9221   -8.5416    3.0773 H   0  0  0  0  0  0  0  0  0  0  0  0
    6.7926   -6.7529    4.5371 H   0  0  0  0  0  0  0  0  0  0  0  0
    5.6953   -5.5864    3.8613 H   0  0  0  0  0  0  0  0  0  0  0  0
    4.9916   -8.2064    5.2275 H   0  0  0  0  0  0  0  0  0  0  0  0
    4.9355   -6.6568    5.9885 H   0  0  0  0  0  0  0  0  0  0  0  0
    1.9277   -5.1914    4.6944 H   0  0  0  0  0  0  0  0  0  0  0  0
    3.5549   -4.8309    4.1947 H   0  0  0  0  0  0  0  0  0  0  0  0
    3.1997   -5.2027    5.8632 H   0  0  0  0  0  0  0  0  0  0  0  0
    2.5911   -8.7798    7.2824 H   0  0  0  0  0  0  0  0  0  0  0  0
    3.2065   -9.9425    5.4037 H   0  0  0  0  0  0  0  0  0  0  0  0
    0.6218  -10.2984    4.1469 H   0  0  0  0  0  0  0  0  0  0  0  0
    1.2285  -10.9456    5.6244 H   0  0  0  0  0  0  0  0  0  0  0  0
   -0.8313   -9.0851    5.6818 H   0  0  0  0  0  0  0  0  0  0  0  0
    0.3298   -9.3708    6.9437 H   0  0  0  0  0  0  0  0  0  0  0  0
   -0.2931   -6.9398    7.1186 H   0  0  0  0  0  0  0  0  0  0  0  0
   -1.2481   -8.0214    3.9459 H   0  0  0  0  0  0  0  0  0  0  0  0
   -0.9667   -6.4514    3.3320 H   0  0  0  0  0  0  0  0  0  0  0  0
    0.5444   -8.9261    2.6220 H   0  0  0  0  0  0  0  0  0  0  0  0
   -0.1839   -8.4963    0.7881 H   0  0  0  0  0  0  0  0  0  0  0  0
    1.9709   -7.3409    1.2556 H   0  0  0  0  0  0  0  0  0  0  0  0
    2.3558   -5.2979    2.1311 H   0  0  0  0  0  0  0  0  0  0  0  0
    4.0096   -9.5410    3.4713 H   0  0  0  0  0  0  0  0  0  0  0  0
    2.4915   -9.7129    2.7126 H   0  0  0  0  0  0  0  0  0  0  0  0
  2  1  1  6
  1 33  1  0
  1 34  1  0
  1 35  1  0
  2 13  1  0
  2 31  1  0
  2  3  1  0
  3  4  1  0
  3 36  1  0
  3 37  1  0
  4  5  1  0
  4 10  1  0
  4 38  1  6
  5  9  2  0
  5  6  1  0
  6  7  2  0
  6 39  1  0
  7  8  1  0
  7 40  1  0
  8  9  1  0
  9 41  1  0
 10 11  1  0
 11 12  1  0
 11 13  1  0
 11 42  1  6
 12 43  1  0
 13 14  1  0
 13 44  1  1
 14 15  1  0
 14 45  1  0
 14 46  1  0
 15 16  1  0
 15 47  1  0
 15 48  1  0
 16 31  1  0
 16 17  1  6
 16 18  1  0
 17 49  1  0
 17 50  1  0
 17 51  1  0
 18 23  1  0
 18 19  1  1
 18 20  1  0
 19 52  1  0
 20 32  1  0
 20 21  1  0
 20 53  1  1
 21 22  1  0
 21 54  1  0
 21 55  1  0
 22 23  1  0
 22 56  1  0
 22 57  1  0
 23 24  1  1
 23 25  1  0
 24 58  1  0
 25 26  1  0
 26 27  1  0
 26 59  1  0
 26 60  1  0
 27 28  1  0
 27 29  1  0
 27 61  1  1
 28 62  1  0
 29 30  1  0
 29 31  1  0
 29 63  1  6
 30 64  1  0
 31 32  1  1
 32 65  1  0
 32 66  1  0
M  END
>  <i_m_ct_stereo_status>  (230) 
1

>  <s_m_source_file>  (230) 
/var/tmp/pbs.5083858.sched01/tmpba25mbhw/952bd64zhe.sdf

>  <i_m_source_file_index>  (230) 
3

>  <i_lp_mmshare_version>  (230) 
48012

>  <i_f3d_flags>  (230) 
0

>  <s_epik_input>  (230) 
W2NIXTFvW2NIXVtjSF1jMVtDQEhdKFtDSDJdMilPW0NAQEhdKFtPSF0pW0NASF0oW0NAXTIoW0NAQF0zNDUpW0NIM10pW0NIMl1bQ0gyXVtDQF0zKFtDSDNdKVtDQF02KFtPSF0pW0NASF0oW0NIMl01KVtDSDJdW0NIMl1bQ0BdNihbT0hdKU9bQ0gyXVtDQEBIXShbT0hdKVtDQEhdNFtPSF0=

>  <s_epik_cmdline>  (230) 
J2VwaWtfcHl0aG9uJywgJy1waHQnLCAnMi4wJywgJy1waCcsICc3LjAnLCAnLXRuJywgJzgnLCAnLW1hJywgJzIwMCcsICctaW1hZScsICc8aW5maWxlLm1hZT4nLCAnLW9tYWUnLCAnPG91dGZpbGUubWFlPic=

>  <r_lp_tautomer_probability>  (230) 
1

>  <r_epik_Ionization_Penalty>  (230) 
3.56137e-07

>  <r_epik_Ionization_Penalty_Charging>  (230) 
0

>  <r_epik_Ionization_Penalty_Neutral>  (230) 
3.56137e-07

>  <r_epik_State_Penalty>  (230) 
-0

>  <r_epik_Charging_Adjusted_Penalty>  (230) 
0

>  <i_epik_Tot_Q>  (230) 
0

>  <i_epik_Tot_abs_Q>  (230) 
0

>  <s_epik_Chemistry_Notes>  (230) 
This compound contains an acetal/aminal-like group ( X-CH(R)-Y where X, Y are N, S, or O) that may be acid/base labile, releasing an aldehyde.

>  <s_lp_Force_Field>  (230) 
OPLS3e

>  <r_lp_Energy>  (230) 
98.8005

>  <b_lp_Chiralities_Consistent>  (230) 
1

>  <s_lp_Variant>  (230) 
69:0-1

>  <s_i_glide_gridfile>  (230) 
pfpi4k_grid

>  <i_i_glide_lignum>  (230) 
3

>  <i_i_glide_rotatable_bonds>  (230) 
6

>  <r_i_docking_score>  (230) 
-3.44343

>  <r_i_glide_ligand_efficiency>  (230) 
-0.107607

>  <r_i_glide_ligand_efficiency_sa>  (230) 
-0.341632

>  <r_i_glide_ligand_efficiency_ln>  (230) 
-0.771078

>  <r_i_glide_gscore>  (230) 
-3.44343

>  <r_i_glide_lipo>  (230) 
-0.38928

>  <r_i_glide_hbond>  (230) 
0

>  <r_i_glide_metal>  (230) 
-0

>  <r_i_glide_rewards>  (230) 
-0.420801

>  <r_i_glide_evdw>  (230) 
-28.8405

>  <r_i_glide_ecoul>  (230) 
-8.50731

>  <r_i_glide_erotb>  (230) 
0.0987815

>  <r_i_glide_esite>  (230) 
-0.0140064

>  <r_i_glide_emodel>  (230) 
-45.84

>  <r_i_glide_energy>  (230) 
-37.3478

>  <r_i_glide_einternal>  (230) 
2.07009

>  <r_i_glide_intrahb_reward>  (230) 
-0

>  <i_i_glide_confnum>  (230) 
2

>  <i_i_glide_posenum>  (230) 
8

>  <r_i_glide_eff_state_penalty>  (230) 
0

>  <ligand_id>  (230) 
69

>  <original_smiles>  (230) 
CC12CC(c3ccoc3)OC(O)C1CCC1(C)C3(O)C4CCC3(O)OCC(O)C(O)C21C4

>  <smiles>  (230) 
[H]OC1([H])OC([H])(c2c([H])oc([H])c2[H])C([H])([H])C2(C([H])([H])[H])C1([H])C([H])([H])C([H])([H])C1(C([H])([H])[H])C3(O[H])C4(O[H])OC([H])([H])C([H])(O[H])C([H])(O[H])C21C([H])([H])C3([H])C([H])([H])C4([H])[H]

$$$$
70:0:0
     RDKit          3D

 42 45  0  0  1  0  0  0  0  0999 V2000
    3.0638   -5.1252    6.5804 C   0  0  0  0  0  0  0  0  0  0  0  0
    2.4571   -5.8636    5.3648 C   0  0  0  0  0  0  0  0  0  0  0  0
    3.3275   -5.5517    4.1277 C   0  0  0  0  0  0  0  0  0  0  0  0
    2.3844   -7.3968    5.6356 C   0  0  0  0  0  0  0  0  0  0  0  0
    0.8792   -7.7199    5.4894 C   0  0  1  0  0  0  0  0  0  0  0  0
    0.2437   -6.4957    6.1040 C   0  0  0  0  0  0  0  0  0  0  0  0
    0.9448   -5.5261    5.1351 C   0  0  1  0  0  0  0  0  0  0  0  0
    0.5337   -4.0594    5.2773 C   0  0  0  0  0  0  0  0  0  0  0  0
    0.9190   -3.1200    4.2924 C   0  0  0  0  0  0  0  0  0  0  0  0
    0.5180   -1.7805    4.4330 C   0  0  0  0  0  0  0  0  0  0  0  0
   -0.2736   -1.4272    5.5416 C   0  0  0  0  0  0  0  0  0  0  0  0
   -0.6595   -2.3085    6.4818 N   0  0  0  0  0  0  0  0  0  0  0  0
   -0.2518   -3.5893    6.3546 C   0  0  0  0  0  0  0  0  0  0  0  0
    0.5402   -6.0926    3.8771 O   0  0  0  0  0  0  0  0  0  0  0  0
    0.5168   -7.4499    4.0588 C   0  0  0  0  0  0  0  0  0  0  0  0
    0.1415   -8.3634    3.1531 C   0  0  0  0  0  0  0  0  0  0  0  0
    0.0742   -9.8428    3.4938 C   0  0  1  0  0  0  0  0  0  0  0  0
    0.6984  -10.5991    2.4781 O   0  0  0  0  0  0  0  0  0  0  0  0
    0.7053  -10.1796    4.8770 C   0  0  0  0  0  0  0  0  0  0  0  0
    0.3759   -9.1139    5.9480 C   0  0  1  0  0  0  0  0  0  0  0  0
    0.9324   -9.4584    7.2073 O   0  0  0  0  0  0  0  0  0  0  0  0
    4.0821   -5.4688    6.7646 H   0  0  0  0  0  0  0  0  0  0  0  0
    2.4978   -5.2988    7.4963 H   0  0  0  0  0  0  0  0  0  0  0  0
    3.1085   -4.0483    6.4215 H   0  0  0  0  0  0  0  0  0  0  0  0
    2.9740   -6.0673    3.2329 H   0  0  0  0  0  0  0  0  0  0  0  0
    4.3640   -5.8439    4.2923 H   0  0  0  0  0  0  0  0  0  0  0  0
    3.3433   -4.4860    3.9146 H   0  0  0  0  0  0  0  0  0  0  0  0
    2.9876   -7.9772    4.9337 H   0  0  0  0  0  0  0  0  0  0  0  0
    2.7500   -7.6397    6.6359 H   0  0  0  0  0  0  0  0  0  0  0  0
   -0.8417   -6.4797    5.9953 H   0  0  0  0  0  0  0  0  0  0  0  0
    0.5104   -6.3635    7.1532 H   0  0  0  0  0  0  0  0  0  0  0  0
    1.4980   -3.4115    3.4316 H   0  0  0  0  0  0  0  0  0  0  0  0
    0.8035   -1.0376    3.7005 H   0  0  0  0  0  0  0  0  0  0  0  0
   -0.6132   -0.4109    5.6716 H   0  0  0  0  0  0  0  0  0  0  0  0
   -0.6044   -4.2455    7.1349 H   0  0  0  0  0  0  0  0  0  0  0  0
   -0.1504   -8.0732    2.1546 H   0  0  0  0  0  0  0  0  0  0  0  0
   -0.9837  -10.0981    3.5098 H   0  0  0  0  0  0  0  0  0  0  0  0
    0.2899  -10.4034    1.6433 H   0  0  0  0  0  0  0  0  0  0  0  0
    0.3539  -11.1587    5.2056 H   0  0  0  0  0  0  0  0  0  0  0  0
    1.7884  -10.2645    4.7820 H   0  0  0  0  0  0  0  0  0  0  0  0
   -0.7101   -9.0923    6.0586 H   0  0  0  0  0  0  0  0  0  0  0  0
    1.0047  -10.4101    7.2832 H   0  0  0  0  0  0  0  0  0  0  0  0
  1  2  1  0
  1 22  1  0
  1 23  1  0
  1 24  1  0
  2  7  1  0
  2  3  1  0
  2  4  1  0
  3 25  1  0
  3 26  1  0
  3 27  1  0
  5  4  1  6
  4 28  1  0
  4 29  1  0
  5 15  1  0
  5 20  1  0
  5  6  1  0
  6  7  1  0
  6 30  1  0
  6 31  1  0
  7  8  1  6
  7 14  1  0
  8 13  1  0
  8  9  2  0
  9 10  1  0
  9 32  1  0
 10 11  2  0
 10 33  1  0
 11 12  1  0
 11 34  1  0
 12 13  2  0
 13 35  1  0
 14 15  1  0
 15 16  2  0
 16 17  1  0
 16 36  1  0
 17 18  1  0
 17 19  1  0
 17 37  1  1
 18 38  1  0
 19 20  1  0
 19 39  1  0
 19 40  1  0
 20 21  1  0
 20 41  1  1
 21 42  1  0
M  END
>  <i_m_ct_stereo_status>  (231) 
1

>  <s_m_source_file>  (231) 
/var/tmp/pbs.5083858.sched01/tmpba25mbhw/952bd64zhe.sdf

>  <i_m_source_file_index>  (231) 
4

>  <i_lp_mmshare_version>  (231) 
48012

>  <i_f3d_flags>  (231) 
0

>  <s_epik_input>  (231) 
W2NIXTFuW2NIXVtjSF1bY0hdYzFbQ0BdKFtDSDJdMikoQyhbQ0gzXSkoW0NIM10pW0NIMl0zKU9DKFtDQF0yMzQpPVtDSF1bQ0BASF0oW09IXSlbQ0gyXVtDQEhdNFtPSF0=

>  <s_epik_cmdline>  (231) 
J2VwaWtfcHl0aG9uJywgJy1waHQnLCAnMi4wJywgJy1waCcsICc3LjAnLCAnLXRuJywgJzgnLCAnLW1hJywgJzIwMCcsICctaW1hZScsICc8aW5maWxlLm1hZT4nLCAnLW9tYWUnLCAnPG91dGZpbGUubWFlPic=

>  <r_epik_Ionization_Penalty>  (231) 
0.0271336

>  <r_epik_Ionization_Penalty_Charging>  (231) 
0

>  <r_epik_Ionization_Penalty_Neutral>  (231) 
0.0271336

>  <r_epik_State_Penalty>  (231) 
0.0221901

>  <r_epik_Charging_Adjusted_Penalty>  (231) 
0.0221901

>  <i_epik_Tot_Q>  (231) 
0

>  <i_epik_Tot_abs_Q>  (231) 
0

>  <s_lp_Force_Field>  (231) 
OPLS3e

>  <r_lp_Energy>  (231) 
33.4529

>  <b_lp_Chiralities_Consistent>  (231) 
1

>  <s_lp_Variant>  (231) 
70:0-1

>  <s_i_glide_gridfile>  (231) 
pfpi4k_grid

>  <i_i_glide_lignum>  (231) 
4

>  <i_i_glide_rotatable_bonds>  (231) 
3

>  <r_i_docking_score>  (231) 
-3.68477

>  <r_i_glide_ligand_efficiency>  (231) 
-0.175465

>  <r_i_glide_ligand_efficiency_sa>  (231) 
-0.484095

>  <r_i_glide_ligand_efficiency_ln>  (231) 
-0.911052

>  <r_i_glide_gscore>  (231) 
-3.68477

>  <r_i_glide_lipo>  (231) 
-0.0331351

>  <r_i_glide_hbond>  (231) 
-0.447839

>  <r_i_glide_metal>  (231) 
-0

>  <r_i_glide_rewards>  (231) 
-1.44986

>  <r_i_glide_evdw>  (231) 
-17.8567

>  <r_i_glide_ecoul>  (231) 
-7.20807

>  <r_i_glide_erotb>  (231) 
0.220111

>  <r_i_glide_esite>  (231) 
0

>  <r_i_glide_emodel>  (231) 
-30.7625

>  <r_i_glide_energy>  (231) 
-25.0648

>  <r_i_glide_einternal>  (231) 
2.03597

>  <r_i_glide_intrahb_reward>  (231) 
-0

>  <i_i_glide_confnum>  (231) 
4

>  <i_i_glide_posenum>  (231) 
37

>  <r_i_glide_eff_state_penalty>  (231) 
0

>  <ligand_id>  (231) 
70

>  <original_smiles>  (231) 
CC1(C)CC23CC1(c1cccnc1)OC2=CC(O)CC3O

>  <smiles>  (231) 
[H]OC1([H])C([H])=C2OC3(c4c([H])nc([H])c([H])c4[H])C([H])([H])C2(C([H])([H])C3(C([H])([H])[H])C([H])([H])[H])C([H])(O[H])C1([H])[H]

$$$$
70:0:1
     RDKit          3D

 42 45  0  0  1  0  0  0  0  0999 V2000
    1.5015   -5.2421    7.5301 C   0  0  0  0  0  0  0  0  0  0  0  0
    1.9224   -5.6940    6.1103 C   0  0  0  0  0  0  0  0  0  0  0  0
    3.3622   -5.1972    5.8649 C   0  0  0  0  0  0  0  0  0  0  0  0
    1.8049   -7.2435    5.9813 C   0  0  0  0  0  0  0  0  0  0  0  0
    0.8235   -7.4358    4.8045 C   0  0  1  0  0  0  0  0  0  0  0  0
   -0.1526   -6.2995    5.0210 C   0  0  0  0  0  0  0  0  0  0  0  0
    0.9491   -5.2246    4.9754 C   0  0  1  0  0  0  0  0  0  0  0  0
    0.4409   -3.7851    5.0538 C   0  0  0  0  0  0  0  0  0  0  0  0
    0.9462   -2.8105    4.1647 C   0  0  0  0  0  0  0  0  0  0  0  0
    0.4575   -1.4929    4.2485 C   0  0  0  0  0  0  0  0  0  0  0  0
   -0.5115   -1.1936    5.2257 C   0  0  0  0  0  0  0  0  0  0  0  0
   -1.0039   -2.1101    6.0829 N   0  0  0  0  0  0  0  0  0  0  0  0
   -0.5226   -3.3694    6.0005 C   0  0  0  0  0  0  0  0  0  0  0  0
    1.5511   -5.5405    3.7053 O   0  0  0  0  0  0  0  0  0  0  0  0
    1.5134   -6.9006    3.5875 C   0  0  0  0  0  0  0  0  0  0  0  0
    1.9203   -7.6122    2.5255 C   0  0  0  0  0  0  0  0  0  0  0  0
    1.7543   -9.1245    2.4640 C   0  0  1  0  0  0  0  0  0  0  0  0
    2.9697   -9.7158    2.0476 O   0  0  0  0  0  0  0  0  0  0  0  0
    1.2968   -9.7397    3.8142 C   0  0  0  0  0  0  0  0  0  0  0  0
    0.2536   -8.8536    4.5363 C   0  0  1  0  0  0  0  0  0  0  0  0
   -0.1856   -9.4522    5.7357 O   0  0  0  0  0  0  0  0  0  0  0  0
    2.1489   -5.6781    8.2921 H   0  0  0  0  0  0  0  0  0  0  0  0
    0.4832   -5.5481    7.7734 H   0  0  0  0  0  0  0  0  0  0  0  0
    1.5615   -4.1590    7.6471 H   0  0  0  0  0  0  0  0  0  0  0  0
    3.7577   -5.5314    4.9063 H   0  0  0  0  0  0  0  0  0  0  0  0
    4.0390   -5.5610    6.6390 H   0  0  0  0  0  0  0  0  0  0  0  0
    3.4056   -4.1092    5.8775 H   0  0  0  0  0  0  0  0  0  0  0  0
    2.7687   -7.7178    5.7894 H   0  0  0  0  0  0  0  0  0  0  0  0
    1.4147   -7.6862    6.8966 H   0  0  0  0  0  0  0  0  0  0  0  0
   -0.8812   -6.2066    4.2134 H   0  0  0  0  0  0  0  0  0  0  0  0
   -0.6777   -6.3661    5.9722 H   0  0  0  0  0  0  0  0  0  0  0  0
    1.6851   -3.0620    3.4175 H   0  0  0  0  0  0  0  0  0  0  0  0
    0.8158   -0.7225    3.5767 H   0  0  0  0  0  0  0  0  0  0  0  0
   -0.9069   -0.1934    5.3205 H   0  0  0  0  0  0  0  0  0  0  0  0
   -0.9503   -4.0663    6.7044 H   0  0  0  0  0  0  0  0  0  0  0  0
    2.3704   -7.1307    1.6700 H   0  0  0  0  0  0  0  0  0  0  0  0
    0.9993   -9.3224    1.7019 H   0  0  0  0  0  0  0  0  0  0  0  0
    2.8216  -10.6115    1.7731 H   0  0  0  0  0  0  0  0  0  0  0  0
    0.8966  -10.7395    3.6447 H   0  0  0  0  0  0  0  0  0  0  0  0
    2.1634   -9.8657    4.4664 H   0  0  0  0  0  0  0  0  0  0  0  0
   -0.6153   -8.7607    3.8840 H   0  0  0  0  0  0  0  0  0  0  0  0
   -0.8274  -10.1403    5.5206 H   0  0  0  0  0  0  0  0  0  0  0  0
  1  2  1  0
  1 22  1  0
  1 23  1  0
  1 24  1  0
  2  7  1  0
  2  3  1  0
  2  4  1  0
  3 25  1  0
  3 26  1  0
  3 27  1  0
  5  4  1  1
  4 28  1  0
  4 29  1  0
  5 15  1  0
  5 20  1  0
  5  6  1  0
  6  7  1  0
  6 30  1  0
  6 31  1  0
  7  8  1  6
  7 14  1  0
  8 13  1  0
  8  9  2  0
  9 10  1  0
  9 32  1  0
 10 11  2  0
 10 33  1  0
 11 12  1  0
 11 34  1  0
 12 13  2  0
 13 35  1  0
 14 15  1  0
 15 16  2  0
 16 17  1  0
 16 36  1  0
 17 18  1  0
 17 19  1  0
 17 37  1  6
 18 38  1  0
 19 20  1  0
 19 39  1  0
 19 40  1  0
 20 21  1  0
 20 41  1  6
 21 42  1  0
M  END
>  <i_m_ct_stereo_status>  (232) 
1

>  <s_m_source_file>  (232) 
/var/tmp/pbs.5083858.sched01/tmpba25mbhw/952bd64zhe.sdf

>  <i_m_source_file_index>  (232) 
4

>  <i_lp_mmshare_version>  (232) 
48012

>  <i_f3d_flags>  (232) 
0

>  <s_epik_input>  (232) 
W2NIXTFuW2NIXVtjSF1bY0hdYzFbQ0BdKFtDSDJdMikoQyhbQ0gzXSkoW0NIM10pW0NIMl0zKU9DKFtDQF0yMzQpPVtDSF1bQ0BASF0oW09IXSlbQ0gyXVtDQEhdNFtPSF0=

>  <s_epik_cmdline>  (232) 
J2VwaWtfcHl0aG9uJywgJy1waHQnLCAnMi4wJywgJy1waCcsICc3LjAnLCAnLXRuJywgJzgnLCAnLW1hJywgJzIwMCcsICctaW1hZScsICc8aW5maWxlLm1hZT4nLCAnLW9tYWUnLCAnPG91dGZpbGUubWFlPic=

>  <r_epik_Ionization_Penalty>  (232) 
0.0271336

>  <r_epik_Ionization_Penalty_Charging>  (232) 
0

>  <r_epik_Ionization_Penalty_Neutral>  (232) 
0.0271336

>  <r_epik_State_Penalty>  (232) 
0.0221901

>  <r_epik_Charging_Adjusted_Penalty>  (232) 
0.0221901

>  <i_epik_Tot_Q>  (232) 
0

>  <i_epik_Tot_abs_Q>  (232) 
0

>  <s_lp_Force_Field>  (232) 
OPLS3e

>  <r_lp_Energy>  (232) 
33.4529

>  <b_lp_Chiralities_Consistent>  (232) 
1

>  <s_lp_Variant>  (232) 
70:0-1

>  <s_i_glide_gridfile>  (232) 
pfpi4k_grid

>  <i_i_glide_lignum>  (232) 
4

>  <i_i_glide_rotatable_bonds>  (232) 
3

>  <r_i_docking_score>  (232) 
-3.21604

>  <r_i_glide_ligand_efficiency>  (232) 
-0.153145

>  <r_i_glide_ligand_efficiency_sa>  (232) 
-0.422514

>  <r_i_glide_ligand_efficiency_ln>  (232) 
-0.795159

>  <r_i_glide_gscore>  (232) 
-3.21604

>  <r_i_glide_lipo>  (232) 
-0.0651656

>  <r_i_glide_hbond>  (232) 
-0.16

>  <r_i_glide_metal>  (232) 
-0

>  <r_i_glide_rewards>  (232) 
-1.44986

>  <r_i_glide_evdw>  (232) 
-17.4551

>  <r_i_glide_ecoul>  (232) 
-5.92244

>  <r_i_glide_erotb>  (232) 
0.220111

>  <r_i_glide_esite>  (232) 
0

>  <r_i_glide_emodel>  (232) 
-28.5934

>  <r_i_glide_energy>  (232) 
-23.3775

>  <r_i_glide_einternal>  (232) 
1.25929

>  <r_i_glide_intrahb_reward>  (232) 
-0

>  <i_i_glide_confnum>  (232) 
4

>  <i_i_glide_posenum>  (232) 
27

>  <r_i_glide_eff_state_penalty>  (232) 
0

>  <ligand_id>  (232) 
70

>  <original_smiles>  (232) 
CC1(C)CC23CC1(c1cccnc1)OC2=CC(O)CC3O

>  <smiles>  (232) 
[H]OC1([H])C([H])=C2OC3(c4c([H])nc([H])c([H])c4[H])C([H])([H])C2(C([H])([H])C3(C([H])([H])[H])C([H])([H])[H])C([H])(O[H])C1([H])[H]

$$$$
70:0:2
     RDKit          3D

 42 45  0  0  1  0  0  0  0  0999 V2000
    2.8599   -5.0103    7.1022 C   0  0  0  0  0  0  0  0  0  0  0  0
    2.4695   -5.8138    5.8396 C   0  0  0  0  0  0  0  0  0  0  0  0
    3.4699   -5.4610    4.7177 C   0  0  0  0  0  0  0  0  0  0  0  0
    2.4567   -7.3426    6.1420 C   0  0  0  0  0  0  0  0  0  0  0  0
    1.0069   -7.7662    5.8088 C   0  0  1  0  0  0  0  0  0  0  0  0
    0.2206   -6.5724    6.2947 C   0  0  0  0  0  0  0  0  0  0  0  0
    0.9841   -5.5845    5.3979 C   0  0  1  0  0  0  0  0  0  0  0  0
    0.4727   -4.1430    5.4315 C   0  0  0  0  0  0  0  0  0  0  0  0
    0.8493   -3.2391    4.4176 C   0  0  0  0  0  0  0  0  0  0  0  0
    0.3555   -1.9217    4.4570 C   0  0  0  0  0  0  0  0  0  0  0  0
   -0.5092   -1.5609    5.5060 C   0  0  0  0  0  0  0  0  0  0  0  0
   -0.8850   -2.4127    6.4805 N   0  0  0  0  0  0  0  0  0  0  0  0
   -0.3888   -3.6684    6.4475 C   0  0  0  0  0  0  0  0  0  0  0  0
    0.7924   -6.2090    4.1144 O   0  0  0  0  0  0  0  0  0  0  0  0
    0.8266   -7.5584    4.3347 C   0  0  0  0  0  0  0  0  0  0  0  0
    0.6331   -8.5201    3.4205 C   0  0  0  0  0  0  0  0  0  0  0  0
    0.6137   -9.9915    3.8031 C   0  0  1  0  0  0  0  0  0  0  0  0
    1.4382  -10.7193    2.9209 O   0  0  0  0  0  0  0  0  0  0  0  0
    1.0687  -10.2477    5.2626 C   0  0  0  0  0  0  0  0  0  0  0  0
    0.5299   -9.1783    6.2363 C   0  0  1  0  0  0  0  0  0  0  0  0
    0.9248   -9.4601    7.5666 O   0  0  0  0  0  0  0  0  0  0  0  0
    3.8640   -5.2774    7.4339 H   0  0  0  0  0  0  0  0  0  0  0  0
    2.1891   -5.2028    7.9395 H   0  0  0  0  0  0  0  0  0  0  0  0
    2.8569   -3.9353    6.9186 H   0  0  0  0  0  0  0  0  0  0  0  0
    3.2783   -6.0259    3.8054 H   0  0  0  0  0  0  0  0  0  0  0  0
    4.4955   -5.6683    5.0218 H   0  0  0  0  0  0  0  0  0  0  0  0
    3.4249   -4.4028    4.4655 H   0  0  0  0  0  0  0  0  0  0  0  0
    3.1826   -7.8944    5.5433 H   0  0  0  0  0  0  0  0  0  0  0  0
    2.6957   -7.5403    7.1879 H   0  0  0  0  0  0  0  0  0  0  0  0
   -0.8368   -6.6241    6.0389 H   0  0  0  0  0  0  0  0  0  0  0  0
    0.3318   -6.4033    7.3660 H   0  0  0  0  0  0  0  0  0  0  0  0
    1.4969   -3.5464    3.6086 H   0  0  0  0  0  0  0  0  0  0  0  0
    0.6241   -1.2024    3.6934 H   0  0  0  0  0  0  0  0  0  0  0  0
   -0.9127   -0.5604    5.5649 H   0  0  0  0  0  0  0  0  0  0  0  0
   -0.7206   -4.3030    7.2532 H   0  0  0  0  0  0  0  0  0  0  0  0
    0.4650   -8.2775    2.3816 H   0  0  0  0  0  0  0  0  0  0  0  0
   -0.4151  -10.3348    3.6817 H   0  0  0  0  0  0  0  0  0  0  0  0
    1.4049  -11.6370    3.1547 H   0  0  0  0  0  0  0  0  0  0  0  0
    0.7373  -11.2398    5.5700 H   0  0  0  0  0  0  0  0  0  0  0  0
    2.1585  -10.2600    5.3114 H   0  0  0  0  0  0  0  0  0  0  0  0
   -0.5608   -9.2211    6.1981 H   0  0  0  0  0  0  0  0  0  0  0  0
    1.0147  -10.4060    7.6633 H   0  0  0  0  0  0  0  0  0  0  0  0
  1  2  1  0
  1 22  1  0
  1 23  1  0
  1 24  1  0
  2  7  1  0
  2  3  1  0
  2  4  1  0
  3 25  1  0
  3 26  1  0
  3 27  1  0
  5  4  1  6
  4 28  1  0
  4 29  1  0
  5 15  1  0
  5 20  1  0
  5  6  1  0
  6  7  1  0
  6 30  1  0
  6 31  1  0
  7  8  1  6
  7 14  1  0
  8 13  1  0
  8  9  2  0
  9 10  1  0
  9 32  1  0
 10 11  2  0
 10 33  1  0
 11 12  1  0
 11 34  1  0
 12 13  2  0
 13 35  1  0
 14 15  1  0
 15 16  2  0
 16 17  1  0
 16 36  1  0
 17 18  1  0
 17 19  1  0
 17 37  1  1
 18 38  1  0
 19 20  1  0
 19 39  1  0
 19 40  1  0
 20 21  1  0
 20 41  1  1
 21 42  1  0
M  END
>  <i_m_ct_stereo_status>  (233) 
1

>  <s_m_source_file>  (233) 
/var/tmp/pbs.5083858.sched01/tmpba25mbhw/952bd64zhe.sdf

>  <i_m_source_file_index>  (233) 
4

>  <i_lp_mmshare_version>  (233) 
48012

>  <i_f3d_flags>  (233) 
0

>  <s_epik_input>  (233) 
W2NIXTFuW2NIXVtjSF1bY0hdYzFbQ0BdKFtDSDJdMikoQyhbQ0gzXSkoW0NIM10pW0NIMl0zKU9DKFtDQF0yMzQpPVtDSF1bQ0BASF0oW09IXSlbQ0gyXVtDQEhdNFtPSF0=

>  <s_epik_cmdline>  (233) 
J2VwaWtfcHl0aG9uJywgJy1waHQnLCAnMi4wJywgJy1waCcsICc3LjAnLCAnLXRuJywgJzgnLCAnLW1hJywgJzIwMCcsICctaW1hZScsICc8aW5maWxlLm1hZT4nLCAnLW9tYWUnLCAnPG91dGZpbGUubWFlPic=

>  <r_epik_Ionization_Penalty>  (233) 
0.0271336

>  <r_epik_Ionization_Penalty_Charging>  (233) 
0

>  <r_epik_Ionization_Penalty_Neutral>  (233) 
0.0271336

>  <r_epik_State_Penalty>  (233) 
0.0221901

>  <r_epik_Charging_Adjusted_Penalty>  (233) 
0.0221901

>  <i_epik_Tot_Q>  (233) 
0

>  <i_epik_Tot_abs_Q>  (233) 
0

>  <s_lp_Force_Field>  (233) 
OPLS3e

>  <r_lp_Energy>  (233) 
33.4529

>  <b_lp_Chiralities_Consistent>  (233) 
1

>  <s_lp_Variant>  (233) 
70:0-1

>  <s_i_glide_gridfile>  (233) 
pfpi4k_grid

>  <i_i_glide_lignum>  (233) 
4

>  <i_i_glide_rotatable_bonds>  (233) 
3

>  <r_i_docking_score>  (233) 
-3.19926

>  <r_i_glide_ligand_efficiency>  (233) 
-0.152345

>  <r_i_glide_ligand_efficiency_sa>  (233) 
-0.42031

>  <r_i_glide_ligand_efficiency_ln>  (233) 
-0.791009

>  <r_i_glide_gscore>  (233) 
-3.19926

>  <r_i_glide_lipo>  (233) 
-0.044865

>  <r_i_glide_hbond>  (233) 
-0.16

>  <r_i_glide_metal>  (233) 
-0

>  <r_i_glide_rewards>  (233) 
-1.44986

>  <r_i_glide_evdw>  (233) 
-17.694

>  <r_i_glide_ecoul>  (233) 
-5.86625

>  <r_i_glide_erotb>  (233) 
0.220111

>  <r_i_glide_esite>  (233) 
0

>  <r_i_glide_emodel>  (233) 
-28.453

>  <r_i_glide_energy>  (233) 
-23.5603

>  <r_i_glide_einternal>  (233) 
1.87036

>  <r_i_glide_intrahb_reward>  (233) 
-0

>  <i_i_glide_confnum>  (233) 
2

>  <i_i_glide_posenum>  (233) 
20

>  <r_i_glide_eff_state_penalty>  (233) 
0

>  <ligand_id>  (233) 
70

>  <original_smiles>  (233) 
CC1(C)CC23CC1(c1cccnc1)OC2=CC(O)CC3O

>  <smiles>  (233) 
[H]OC1([H])C([H])=C2OC3(c4c([H])nc([H])c([H])c4[H])C([H])([H])C2(C([H])([H])C3(C([H])([H])[H])C([H])([H])[H])C([H])(O[H])C1([H])[H]

$$$$
70:1:0
     RDKit          3D

 43 46  0  0  1  0  0  0  0  0999 V2000
    3.1211   -1.4403    4.7129 C   0  0  0  0  0  0  0  0  0  0  0  0
    3.8247   -1.0675    3.3889 C   0  0  0  0  0  0  0  0  0  0  0  0
    4.7510    0.1269    3.6827 C   0  0  0  0  0  0  0  0  0  0  0  0
    4.6106   -2.2962    2.8399 C   0  0  0  0  0  0  0  0  0  0  0  0
    4.0120   -2.5106    1.4310 C   0  0  1  0  0  0  0  0  0  0  0  0
    2.5532   -2.1858    1.6687 C   0  0  0  0  0  0  0  0  0  0  0  0
    2.8544   -0.7717    2.1927 C   0  0  1  0  0  0  0  0  0  0  0  0
    1.6149    0.0744    2.4862 C   0  0  0  0  0  0  0  0  0  0  0  0
    0.5569   -0.3888    3.3084 C   0  0  0  0  0  0  0  0  0  0  0  0
   -0.5382    0.4589    3.5856 C   0  0  0  0  0  0  0  0  0  0  0  0
   -0.5854    1.7381    2.9883 C   0  0  0  0  0  0  0  0  0  0  0  0
    0.4224    2.1439    2.1847 N   0  0  0  0  0  0  0  0  0  0  0  0
    1.5054    1.3730    1.9345 C   0  0  0  0  0  0  0  0  0  0  0  0
    3.6548   -0.2545    1.1065 O   0  0  0  0  0  0  0  0  0  0  0  0
    4.3840   -1.3042    0.6253 C   0  0  0  0  0  0  0  0  0  0  0  0
    5.2049   -1.2821   -0.4350 C   0  0  0  0  0  0  0  0  0  0  0  0
    5.9100   -2.5367   -0.9272 C   0  0  1  0  0  0  0  0  0  0  0  0
    7.2749   -2.2552   -1.1650 O   0  0  0  0  0  0  0  0  0  0  0  0
    5.7681   -3.7293    0.0545 C   0  0  0  0  0  0  0  0  0  0  0  0
    4.3508   -3.8119    0.6626 C   0  0  1  0  0  0  0  0  0  0  0  0
    4.2400   -4.9355    1.5124 O   0  0  0  0  0  0  0  0  0  0  0  0
    3.8356   -1.7359    5.4826 H   0  0  0  0  0  0  0  0  0  0  0  0
    2.4462   -2.2854    4.5895 H   0  0  0  0  0  0  0  0  0  0  0  0
    2.5606   -0.6009    5.1226 H   0  0  0  0  0  0  0  0  0  0  0  0
    5.3492    0.3957    2.8156 H   0  0  0  0  0  0  0  0  0  0  0  0
    5.4455   -0.1003    4.4927 H   0  0  0  0  0  0  0  0  0  0  0  0
    4.1763    1.0062    3.9730 H   0  0  0  0  0  0  0  0  0  0  0  0
    5.6863   -2.1198    2.7986 H   0  0  0  0  0  0  0  0  0  0  0  0
    4.4598   -3.1714    3.4731 H   0  0  0  0  0  0  0  0  0  0  0  0
    1.9657   -2.1916    0.7499 H   0  0  0  0  0  0  0  0  0  0  0  0
    2.0706   -2.8404    2.3946 H   0  0  0  0  0  0  0  0  0  0  0  0
    0.5764   -1.3768    3.7360 H   0  0  0  0  0  0  0  0  0  0  0  0
   -1.3374    0.1250    4.2288 H   0  0  0  0  0  0  0  0  0  0  0  0
   -1.3965    2.4398    3.1186 H   0  0  0  0  0  0  0  0  0  0  0  0
    2.2476    1.8129    1.2867 H   0  0  0  0  0  0  0  0  0  0  0  0
    5.3579   -0.3669   -0.9867 H   0  0  0  0  0  0  0  0  0  0  0  0
    5.4472   -2.8020   -1.8789 H   0  0  0  0  0  0  0  0  0  0  0  0
    7.6710   -3.0128   -1.5752 H   0  0  0  0  0  0  0  0  0  0  0  0
    6.0114   -4.6549   -0.4644 H   0  0  0  0  0  0  0  0  0  0  0  0
    6.4974   -3.6278    0.8613 H   0  0  0  0  0  0  0  0  0  0  0  0
    3.6345   -3.9403   -0.1528 H   0  0  0  0  0  0  0  0  0  0  0  0
    4.3888   -5.7188    1.0087 H   0  0  0  0  0  0  0  0  0  0  0  0
    0.3450    3.0720    1.7103 H   0  0  0  0  0  0  0  0  0  0  0  0
  1  2  1  0
  1 22  1  0
  1 23  1  0
  1 24  1  0
  2  7  1  0
  2  3  1  0
  2  4  1  0
  3 25  1  0
  3 26  1  0
  3 27  1  0
  5  4  1  1
  4 28  1  0
  4 29  1  0
  5 15  1  0
  5 20  1  0
  5  6  1  0
  6  7  1  0
  6 30  1  0
  6 31  1  0
  7  8  1  1
  7 14  1  0
  8 13  1  0
  8  9  2  0
  9 10  1  0
  9 32  1  0
 10 11  2  0
 10 33  1  0
 11 12  1  0
 11 34  1  0
 12 13  2  0
 12 43  1  0
 13 35  1  0
 14 15  1  0
 15 16  2  0
 16 17  1  0
 16 36  1  0
 17 18  1  0
 17 19  1  0
 17 37  1  6
 18 38  1  0
 19 20  1  0
 19 39  1  0
 19 40  1  0
 20 21  1  0
 20 41  1  6
 21 42  1  0
M  CHG  1  12   1
M  END
>  <i_m_ct_stereo_status>  (234) 
1

>  <s_m_source_file>  (234) 
/var/tmp/pbs.5083858.sched01/tmpba25mbhw/952bd64zhe.sdf

>  <i_m_source_file_index>  (234) 
5

>  <i_lp_mmshare_version>  (234) 
48012

>  <i_f3d_flags>  (234) 
0

>  <s_epik_input>  (234) 
W2NIXTFuW2NIXVtjSF1bY0hdYzFbQ0BdKFtDSDJdMikoQyhbQ0gzXSkoW0NIM10pW0NIMl0zKU9DKFtDQF0yMzQpPVtDSF1bQ0BASF0oW09IXSlbQ0gyXVtDQEhdNFtPSF0=

>  <s_epik_cmdline>  (234) 
J2VwaWtfcHl0aG9uJywgJy1waHQnLCAnMi4wJywgJy1waCcsICc3LjAnLCAnLXRuJywgJzgnLCAnLW1hJywgJzIwMCcsICctaW1hZScsICc8aW5maWxlLm1hZT4nLCAnLW9tYWUnLCAnPG91dGZpbGUubWFlPic=

>  <r_epik_Ionization_Penalty>  (234) 
1.84049

>  <r_epik_Ionization_Penalty_Charging>  (234) 
1.84049

>  <r_epik_Ionization_Penalty_Neutral>  (234) 
1.42101e-06

>  <r_epik_State_Penalty>  (234) 
1.95719

>  <r_epik_Charging_Adjusted_Penalty>  (234) 
3.79768

>  <i_epik_Tot_Q>  (234) 
1

>  <i_epik_Tot_abs_Q>  (234) 
1

>  <s_lp_Force_Field>  (234) 
OPLS3e

>  <r_lp_Energy>  (234) 
39.6182

>  <b_lp_Chiralities_Consistent>  (234) 
1

>  <s_lp_Variant>  (234) 
70:0-2

>  <s_i_glide_gridfile>  (234) 
pfpi4k_grid

>  <i_i_glide_lignum>  (234) 
5

>  <i_i_glide_rotatable_bonds>  (234) 
3

>  <r_i_docking_score>  (234) 
-4.45479

>  <r_i_glide_ligand_efficiency>  (234) 
-0.212133

>  <r_i_glide_ligand_efficiency_sa>  (234) 
-0.585259

>  <r_i_glide_ligand_efficiency_ln>  (234) 
-1.10144

>  <r_i_glide_gscore>  (234) 
-4.45479

>  <r_i_glide_lipo>  (234) 
-0.182112

>  <r_i_glide_hbond>  (234) 
-0.36

>  <r_i_glide_metal>  (234) 
-0

>  <r_i_glide_rewards>  (234) 
-1.44299

>  <r_i_glide_evdw>  (234) 
-21.0948

>  <r_i_glide_ecoul>  (234) 
-10.242

>  <r_i_glide_erotb>  (234) 
0.218772

>  <r_i_glide_esite>  (234) 
-0.0974206

>  <r_i_glide_emodel>  (234) 
-41.3942

>  <r_i_glide_energy>  (234) 
-31.3368

>  <r_i_glide_einternal>  (234) 
1.23145

>  <r_i_glide_intrahb_reward>  (234) 
-0

>  <i_i_glide_confnum>  (234) 
2

>  <i_i_glide_posenum>  (234) 
1

>  <r_i_glide_eff_state_penalty>  (234) 
0

>  <ligand_id>  (234) 
70

>  <original_smiles>  (234) 
CC1(C)CC23CC1(c1cccnc1)OC2=CC(O)CC3O

>  <smiles>  (234) 
[H]OC1([H])C([H])=C2OC3(c4c([H])c([H])c([H])[n+]([H])c4[H])C([H])([H])C2(C([H])([H])C3(C([H])([H])[H])C([H])([H])[H])C([H])(O[H])C1([H])[H]

$$$$
70:1:1
     RDKit          3D

 43 46  0  0  1  0  0  0  0  0999 V2000
   -2.3145    3.2239    5.8338 C   0  0  0  0  0  0  0  0  0  0  0  0
   -0.9653    3.1826    5.0958 C   0  0  0  0  0  0  0  0  0  0  0  0
   -0.1424    4.4124    5.5377 C   0  0  0  0  0  0  0  0  0  0  0  0
   -0.2251    1.8423    5.3886 C   0  0  0  0  0  0  0  0  0  0  0  0
   -0.0212    1.2118    3.9922 C   0  0  1  0  0  0  0  0  0  0  0  0
   -1.3055    1.5996    3.2936 C   0  0  0  0  0  0  0  0  0  0  0  0
   -1.1038    3.1068    3.5428 C   0  0  1  0  0  0  0  0  0  0  0  0
   -2.1526    4.0211    2.8879 C   0  0  0  0  0  0  0  0  0  0  0  0
   -3.4844    3.5810    2.6680 C   0  0  0  0  0  0  0  0  0  0  0  0
   -4.4221    4.4733    2.0775 C   0  0  0  0  0  0  0  0  0  0  0  0
   -4.0041    5.7699    1.6830 C   0  0  0  0  0  0  0  0  0  0  0  0
   -2.7023    6.1403    1.8636 N   0  0  0  0  0  0  0  0  0  0  0  0
   -1.7970    5.3343    2.4795 C   0  0  0  0  0  0  0  0  0  0  0  0
    0.2237    3.2838    3.0383 O   0  0  0  0  0  0  0  0  0  0  0  0
    0.9055    2.1242    3.2630 C   0  0  0  0  0  0  0  0  0  0  0  0
    2.1423    1.8381    2.8442 C   0  0  0  0  0  0  0  0  0  0  0  0
    2.7844    0.4987    3.1452 C   0  0  1  0  0  0  0  0  0  0  0  0
    4.0720    0.7080    3.6813 O   0  0  0  0  0  0  0  0  0  0  0  0
    1.9633   -0.3552    4.1483 C   0  0  0  0  0  0  0  0  0  0  0  0
    0.4427   -0.2545    3.8879 C   0  0  1  0  0  0  0  0  0  0  0  0
   -0.2773   -1.0763    4.7897 O   0  0  0  0  0  0  0  0  0  0  0  0
   -2.1838    3.1709    6.9129 H   0  0  0  0  0  0  0  0  0  0  0  0
   -2.9401    2.3898    5.5475 H   0  0  0  0  0  0  0  0  0  0  0  0
   -2.8779    4.1229    5.6177 H   0  0  0  0  0  0  0  0  0  0  0  0
    0.8554    4.4214    5.0969 H   0  0  0  0  0  0  0  0  0  0  0  0
   -0.0154    4.4356    6.6188 H   0  0  0  0  0  0  0  0  0  0  0  0
   -0.6275    5.3427    5.2462 H   0  0  0  0  0  0  0  0  0  0  0  0
    0.7256    1.9988    5.8975 H   0  0  0  0  0  0  0  0  0  0  0  0
   -0.8239    1.1974    6.0320 H   0  0  0  0  0  0  0  0  0  0  0  0
   -1.3208    1.3439    2.2296 H   0  0  0  0  0  0  0  0  0  0  0  0
   -2.1819    1.1741    3.7856 H   0  0  0  0  0  0  0  0  0  0  0  0
   -3.7970    2.5912    2.9631 H   0  0  0  0  0  0  0  0  0  0  0  0
   -5.4372    4.1436    1.9038 H   0  0  0  0  0  0  0  0  0  0  0  0
   -4.6486    6.4905    1.2005 H   0  0  0  0  0  0  0  0  0  0  0  0
   -0.7796    5.7290    2.5534 H   0  0  0  0  0  0  0  0  0  0  0  0
    2.7047    2.5548    2.2635 H   0  0  0  0  0  0  0  0  0  0  0  0
    2.8751   -0.0307    2.1952 H   0  0  0  0  0  0  0  0  0  0  0  0
    4.4762    1.4240    3.2100 H   0  0  0  0  0  0  0  0  0  0  0  0
    2.2967   -1.3914    4.0916 H   0  0  0  0  0  0  0  0  0  0  0  0
    2.1774   -0.0196    5.1643 H   0  0  0  0  0  0  0  0  0  0  0  0
    0.2492   -0.6143    2.8740 H   0  0  0  0  0  0  0  0  0  0  0  0
    0.0580   -1.9525    4.7134 H   0  0  0  0  0  0  0  0  0  0  0  0
   -2.3870    7.0708    1.5559 H   0  0  0  0  0  0  0  0  0  0  0  0
  1  2  1  0
  1 22  1  0
  1 23  1  0
  1 24  1  0
  2  7  1  0
  2  3  1  0
  2  4  1  0
  3 25  1  0
  3 26  1  0
  3 27  1  0
  5  4  1  1
  4 28  1  0
  4 29  1  0
  5 15  1  0
  5 20  1  0
  5  6  1  0
  6  7  1  0
  6 30  1  0
  6 31  1  0
  7  8  1  6
  7 14  1  0
  8 13  1  0
  8  9  2  0
  9 10  1  0
  9 32  1  0
 10 11  2  0
 10 33  1  0
 11 12  1  0
 11 34  1  0
 12 13  2  0
 12 43  1  0
 13 35  1  0
 14 15  1  0
 15 16  2  0
 16 17  1  0
 16 36  1  0
 17 18  1  0
 17 19  1  0
 17 37  1  6
 18 38  1  0
 19 20  1  0
 19 39  1  0
 19 40  1  0
 20 21  1  0
 20 41  1  6
 21 42  1  0
M  CHG  1  12   1
M  END
>  <i_m_ct_stereo_status>  (235) 
1

>  <s_m_source_file>  (235) 
/var/tmp/pbs.5083858.sched01/tmpba25mbhw/952bd64zhe.sdf

>  <i_m_source_file_index>  (235) 
5

>  <i_lp_mmshare_version>  (235) 
48012

>  <i_f3d_flags>  (235) 
0

>  <s_epik_input>  (235) 
W2NIXTFuW2NIXVtjSF1bY0hdYzFbQ0BdKFtDSDJdMikoQyhbQ0gzXSkoW0NIM10pW0NIMl0zKU9DKFtDQF0yMzQpPVtDSF1bQ0BASF0oW09IXSlbQ0gyXVtDQEhdNFtPSF0=

>  <s_epik_cmdline>  (235) 
J2VwaWtfcHl0aG9uJywgJy1waHQnLCAnMi4wJywgJy1waCcsICc3LjAnLCAnLXRuJywgJzgnLCAnLW1hJywgJzIwMCcsICctaW1hZScsICc8aW5maWxlLm1hZT4nLCAnLW9tYWUnLCAnPG91dGZpbGUubWFlPic=

>  <r_epik_Ionization_Penalty>  (235) 
1.84049

>  <r_epik_Ionization_Penalty_Charging>  (235) 
1.84049

>  <r_epik_Ionization_Penalty_Neutral>  (235) 
1.42101e-06

>  <r_epik_State_Penalty>  (235) 
1.95719

>  <r_epik_Charging_Adjusted_Penalty>  (235) 
3.79768

>  <i_epik_Tot_Q>  (235) 
1

>  <i_epik_Tot_abs_Q>  (235) 
1

>  <s_lp_Force_Field>  (235) 
OPLS3e

>  <r_lp_Energy>  (235) 
39.6182

>  <b_lp_Chiralities_Consistent>  (235) 
1

>  <s_lp_Variant>  (235) 
70:0-2

>  <s_i_glide_gridfile>  (235) 
pfpi4k_grid

>  <i_i_glide_lignum>  (235) 
5

>  <i_i_glide_rotatable_bonds>  (235) 
3

>  <r_i_docking_score>  (235) 
-3.50536

>  <r_i_glide_ligand_efficiency>  (235) 
-0.166922

>  <r_i_glide_ligand_efficiency_sa>  (235) 
-0.460525

>  <r_i_glide_ligand_efficiency_ln>  (235) 
-0.866694

>  <r_i_glide_gscore>  (235) 
-3.50536

>  <r_i_glide_lipo>  (235) 
-0.1129

>  <r_i_glide_hbond>  (235) 
-0.32

>  <r_i_glide_metal>  (235) 
-0

>  <r_i_glide_rewards>  (235) 
-1.44299

>  <r_i_glide_evdw>  (235) 
-12.6916

>  <r_i_glide_ecoul>  (235) 
-7.52932

>  <r_i_glide_erotb>  (235) 
0.218772

>  <r_i_glide_esite>  (235) 
-0.0842674

>  <r_i_glide_emodel>  (235) 
-28.046

>  <r_i_glide_energy>  (235) 
-20.221

>  <r_i_glide_einternal>  (235) 
1.21043

>  <r_i_glide_intrahb_reward>  (235) 
-0

>  <i_i_glide_confnum>  (235) 
2

>  <i_i_glide_posenum>  (235) 
13

>  <r_i_glide_eff_state_penalty>  (235) 
0

>  <ligand_id>  (235) 
70

>  <original_smiles>  (235) 
CC1(C)CC23CC1(c1cccnc1)OC2=CC(O)CC3O

>  <smiles>  (235) 
[H]OC1([H])C([H])=C2OC3(c4c([H])c([H])c([H])[n+]([H])c4[H])C([H])([H])C2(C([H])([H])C3(C([H])([H])[H])C([H])([H])[H])C([H])(O[H])C1([H])[H]

$$$$
70:1:2
     RDKit          3D

 43 46  0  0  1  0  0  0  0  0999 V2000
   -0.5735    4.6737    5.4235 C   0  0  0  0  0  0  0  0  0  0  0  0
   -0.0221    3.6515    4.4045 C   0  0  0  0  0  0  0  0  0  0  0  0
    1.2214    4.2442    3.6620 C   0  0  0  0  0  0  0  0  0  0  0  0
    0.4266    2.3753    5.1829 C   0  0  0  0  0  0  0  0  0  0  0  0
   -0.4277    1.2430    4.5717 C   0  0  1  0  0  0  0  0  0  0  0  0
   -1.7438    1.9508    4.3858 C   0  0  0  0  0  0  0  0  0  0  0  0
   -1.1640    3.0665    3.4708 C   0  0  1  0  0  0  0  0  0  0  0  0
   -2.2297    4.0203    2.8923 C   0  0  0  0  0  0  0  0  0  0  0  0
   -3.5691    3.6048    2.6362 C   0  0  0  0  0  0  0  0  0  0  0  0
   -4.5125    4.5141    2.0820 C   0  0  0  0  0  0  0  0  0  0  0  0
   -4.0909    5.8086    1.6924 C   0  0  0  0  0  0  0  0  0  0  0  0
   -2.7779    6.1365    1.8583 N   0  0  0  0  0  0  0  0  0  0  0  0
   -1.8622    5.3424    2.4757 C   0  0  0  0  0  0  0  0  0  0  0  0
   -0.5470    2.2309    2.4821 O   0  0  0  0  0  0  0  0  0  0  0  0
   -0.0369    1.1376    3.1234 C   0  0  0  0  0  0  0  0  0  0  0  0
    0.6005    0.1076    2.5464 C   0  0  0  0  0  0  0  0  0  0  0  0
    1.0123   -1.1194    3.3485 C   0  0  1  0  0  0  0  0  0  0  0  0
    2.3468   -1.4694    3.0517 O   0  0  0  0  0  0  0  0  0  0  0  0
    0.8557   -0.9280    4.8800 C   0  0  0  0  0  0  0  0  0  0  0  0
   -0.4346   -0.1569    5.2427 C   0  0  1  0  0  0  0  0  0  0  0  0
   -0.5820   -0.0443    6.6448 O   0  0  0  0  0  0  0  0  0  0  0  0
    0.2012    4.9777    6.1321 H   0  0  0  0  0  0  0  0  0  0  0  0
   -1.4096    4.2741    6.0058 H   0  0  0  0  0  0  0  0  0  0  0  0
   -0.9221    5.5785    4.9438 H   0  0  0  0  0  0  0  0  0  0  0  0
    1.6439    3.4893    2.9856 H   0  0  0  0  0  0  0  0  0  0  0  0
    1.9942    4.5336    4.3938 H   0  0  0  0  0  0  0  0  0  0  0  0
    1.0213    5.1261    3.0476 H   0  0  0  0  0  0  0  0  0  0  0  0
    1.4959    2.1644    5.0486 H   0  0  0  0  0  0  0  0  0  0  0  0
    0.2565    2.4666    6.2642 H   0  0  0  0  0  0  0  0  0  0  0  0
   -2.4514    1.2907    3.8812 H   0  0  0  0  0  0  0  0  0  0  0  0
   -2.1975    2.3044    5.3181 H   0  0  0  0  0  0  0  0  0  0  0  0
   -3.9047    2.6053    2.8734 H   0  0  0  0  0  0  0  0  0  0  0  0
   -5.5322    4.1937    1.8949 H   0  0  0  0  0  0  0  0  0  0  0  0
   -4.7053    6.5526    1.1946 H   0  0  0  0  0  0  0  0  0  0  0  0
   -0.8869    5.8061    2.4856 H   0  0  0  0  0  0  0  0  0  0  0  0
    0.7842    0.0990    1.4757 H   0  0  0  0  0  0  0  0  0  0  0  0
    0.3571   -1.9323    3.0285 H   0  0  0  0  0  0  0  0  0  0  0  0
    2.4232   -1.5350    2.1112 H   0  0  0  0  0  0  0  0  0  0  0  0
    0.8742   -1.9040    5.3659 H   0  0  0  0  0  0  0  0  0  0  0  0
    1.7261   -0.3862    5.2558 H   0  0  0  0  0  0  0  0  0  0  0  0
   -1.2845   -0.7338    4.8690 H   0  0  0  0  0  0  0  0  0  0  0  0
    0.1521    0.4553    6.9717 H   0  0  0  0  0  0  0  0  0  0  0  0
   -2.4357    7.0496    1.5039 H   0  0  0  0  0  0  0  0  0  0  0  0
  1  2  1  0
  1 22  1  0
  1 23  1  0
  1 24  1  0
  2  7  1  0
  2  3  1  0
  2  4  1  0
  3 25  1  0
  3 26  1  0
  3 27  1  0
  5  4  1  1
  4 28  1  0
  4 29  1  0
  5 15  1  0
  5 20  1  0
  5  6  1  0
  6  7  1  0
  6 30  1  0
  6 31  1  0
  7  8  1  6
  7 14  1  0
  8 13  1  0
  8  9  2  0
  9 10  1  0
  9 32  1  0
 10 11  2  0
 10 33  1  0
 11 12  1  0
 11 34  1  0
 12 13  2  0
 12 43  1  0
 13 35  1  0
 14 15  1  0
 15 16  2  0
 16 17  1  0
 16 36  1  0
 17 18  1  0
 17 19  1  0
 17 37  1  6
 18 38  1  0
 19 20  1  0
 19 39  1  0
 19 40  1  0
 20 21  1  0
 20 41  1  6
 21 42  1  0
M  CHG  1  12   1
M  END
>  <i_m_ct_stereo_status>  (236) 
1

>  <s_m_source_file>  (236) 
/var/tmp/pbs.5083858.sched01/tmpba25mbhw/952bd64zhe.sdf

>  <i_m_source_file_index>  (236) 
5

>  <i_lp_mmshare_version>  (236) 
48012

>  <i_f3d_flags>  (236) 
0

>  <s_epik_input>  (236) 
W2NIXTFuW2NIXVtjSF1bY0hdYzFbQ0BdKFtDSDJdMikoQyhbQ0gzXSkoW0NIM10pW0NIMl0zKU9DKFtDQF0yMzQpPVtDSF1bQ0BASF0oW09IXSlbQ0gyXVtDQEhdNFtPSF0=

>  <s_epik_cmdline>  (236) 
J2VwaWtfcHl0aG9uJywgJy1waHQnLCAnMi4wJywgJy1waCcsICc3LjAnLCAnLXRuJywgJzgnLCAnLW1hJywgJzIwMCcsICctaW1hZScsICc8aW5maWxlLm1hZT4nLCAnLW9tYWUnLCAnPG91dGZpbGUubWFlPic=

>  <r_epik_Ionization_Penalty>  (236) 
1.84049

>  <r_epik_Ionization_Penalty_Charging>  (236) 
1.84049

>  <r_epik_Ionization_Penalty_Neutral>  (236) 
1.42101e-06

>  <r_epik_State_Penalty>  (236) 
1.95719

>  <r_epik_Charging_Adjusted_Penalty>  (236) 
3.79768

>  <i_epik_Tot_Q>  (236) 
1

>  <i_epik_Tot_abs_Q>  (236) 
1

>  <s_lp_Force_Field>  (236) 
OPLS3e

>  <r_lp_Energy>  (236) 
39.6182

>  <b_lp_Chiralities_Consistent>  (236) 
1

>  <s_lp_Variant>  (236) 
70:0-2

>  <s_i_glide_gridfile>  (236) 
pfpi4k_grid

>  <i_i_glide_lignum>  (236) 
5

>  <i_i_glide_rotatable_bonds>  (236) 
3

>  <r_i_docking_score>  (236) 
-3.41724

>  <r_i_glide_ligand_efficiency>  (236) 
-0.162726

>  <r_i_glide_ligand_efficiency_sa>  (236) 
-0.448948

>  <r_i_glide_ligand_efficiency_ln>  (236) 
-0.844906

>  <r_i_glide_gscore>  (236) 
-3.41724

>  <r_i_glide_lipo>  (236) 
-0.116123

>  <r_i_glide_hbond>  (236) 
-0.012483

>  <r_i_glide_metal>  (236) 
-0

>  <r_i_glide_rewards>  (236) 
-1.44299

>  <r_i_glide_evdw>  (236) 
-14.5688

>  <r_i_glide_ecoul>  (236) 
-8.37583

>  <r_i_glide_erotb>  (236) 
0.218772

>  <r_i_glide_esite>  (236) 
-0.0796022

>  <r_i_glide_emodel>  (236) 
-30.0792

>  <r_i_glide_energy>  (236) 
-22.9447

>  <r_i_glide_einternal>  (236) 
1.93185

>  <r_i_glide_intrahb_reward>  (236) 
-0

>  <i_i_glide_confnum>  (236) 
2

>  <i_i_glide_posenum>  (236) 
8

>  <r_i_glide_eff_state_penalty>  (236) 
0

>  <ligand_id>  (236) 
70

>  <original_smiles>  (236) 
CC1(C)CC23CC1(c1cccnc1)OC2=CC(O)CC3O

>  <smiles>  (236) 
[H]OC1([H])C([H])=C2OC3(c4c([H])c([H])c([H])[n+]([H])c4[H])C([H])([H])C2(C([H])([H])C3(C([H])([H])[H])C([H])([H])[H])C([H])(O[H])C1([H])[H]

$$$$
71:0:0
     RDKit          3D

 48 52  0  0  1  0  0  0  0  0999 V2000
   -1.2677    1.3551    7.7954 C   0  0  0  0  0  0  0  0  0  0  0  0
   -0.4973    2.3549    6.8832 C   0  0  1  0  0  0  0  0  0  0  0  0
   -1.4370    3.5858    6.8455 C   0  0  0  0  0  0  0  0  0  0  0  0
   -0.9863    4.7020    7.2107 O   0  0  0  0  0  0  0  0  0  0  0  0
   -2.5982    3.3926    6.4376 O   0  0  0  0  0  0  0  0  0  0  0  0
    0.8620    2.6988    7.5905 C   0  0  0  0  0  0  0  0  0  0  0  0
    1.9664    3.3619    6.7152 C   0  0  0  0  0  0  0  0  0  0  0  0
    2.1544    2.5555    5.4201 C   0  0  2  0  0  0  0  0  0  0  0  0
    2.5981    1.2868    5.9055 O   0  0  0  0  0  0  0  0  0  0  0  0
    3.2525    2.9085    4.3962 C   0  0  0  0  0  0  0  0  0  0  0  0
    2.5703    2.7871    2.9978 C   0  0  2  0  0  0  0  0  0  0  0  0
    2.2153    4.1398    2.5051 N   0  0  0  0  0  0  0  0  0  0  0  0
    1.4193    4.9121    3.4789 C   0  0  0  0  0  0  0  0  0  0  0  0
    0.3700    4.0439    4.2188 C   0  0  0  0  0  0  0  0  0  0  0  0
    0.8250    2.5803    4.5927 C   0  0  2  0  0  0  0  0  0  0  0  0
   -0.2863    1.7975    5.4049 C   0  0  1  0  0  0  0  0  0  0  0  0
   -0.1249    0.2420    5.3540 C   0  0  0  0  0  0  0  0  0  0  0  0
    0.7166   -0.2714    4.2285 C   0  0  0  0  0  0  0  0  0  0  0  0
    0.9922   -1.9697    3.9616 S   0  0  0  0  0  0  0  0  0  0  0  0
    2.0321   -1.5494    2.6086 C   0  0  0  0  0  0  0  0  0  0  0  0
    2.7009   -2.5023    1.8653 N   0  0  0  0  0  0  0  0  0  0  0  0
    2.1311   -0.2414    2.3925 N   0  0  0  0  0  0  0  0  0  0  0  0
    1.3943    0.4983    3.3215 C   0  0  0  0  0  0  0  0  0  0  0  0
    1.2621    1.9866    3.2234 C   0  0  2  0  0  0  0  0  0  0  0  0
    0.3332    2.1388    2.1474 O   0  0  0  0  0  0  0  0  0  0  0  0
   -0.6697    0.4854    8.0609 H   0  0  0  0  0  0  0  0  0  0  0  0
   -2.1840    1.0033    7.3189 H   0  0  0  0  0  0  0  0  0  0  0  0
   -1.5547    1.8192    8.7422 H   0  0  0  0  0  0  0  0  0  0  0  0
    0.6822    3.3323    8.4562 H   0  0  0  0  0  0  0  0  0  0  0  0
    1.2665    1.7863    8.0286 H   0  0  0  0  0  0  0  0  0  0  0  0
    1.7209    4.4029    6.5089 H   0  0  0  0  0  0  0  0  0  0  0  0
    2.8994    3.3846    7.2796 H   0  0  0  0  0  0  0  0  0  0  0  0
    2.6700    0.6683    5.1950 H   0  0  0  0  0  0  0  0  0  0  0  0
    3.7071    3.8794    4.5855 H   0  0  0  0  0  0  0  0  0  0  0  0
    4.0840    2.2049    4.4365 H   0  0  0  0  0  0  0  0  0  0  0  0
    3.2042    2.2909    2.2649 H   0  0  0  0  0  0  0  0  0  0  0  0
    3.0556    4.6508    2.2734 H   0  0  0  0  0  0  0  0  0  0  0  0
    2.0908    5.3899    4.1968 H   0  0  0  0  0  0  0  0  0  0  0  0
    0.9221    5.7252    2.9559 H   0  0  0  0  0  0  0  0  0  0  0  0
    0.1251    4.6515    5.0752 H   0  0  0  0  0  0  0  0  0  0  0  0
   -0.5483    3.9998    3.6300 H   0  0  0  0  0  0  0  0  0  0  0  0
   -1.2074    1.9709    4.8443 H   0  0  0  0  0  0  0  0  0  0  0  0
    0.3613   -0.1252    6.2551 H   0  0  0  0  0  0  0  0  0  0  0  0
   -1.1032   -0.2395    5.3320 H   0  0  0  0  0  0  0  0  0  0  0  0
    3.2670   -2.2330    1.0767 H   0  0  0  0  0  0  0  0  0  0  0  0
    0.2274    3.0362    1.8365 H   0  0  0  0  0  0  0  0  0  0  0  0
    2.6095   -3.4904    2.0372 H   0  0  0  0  0  0  0  0  0  0  0  0
    1.6320    4.0709    1.6661 H   0  0  0  0  0  0  0  0  0  0  0  0
  2  1  1  1
  1 26  1  0
  1 27  1  0
  1 28  1  0
  2 16  1  0
  2  3  1  0
  2  6  1  0
  3  4  2  0
  3  5  1  0
  6  7  1  0
  6 29  1  0
  6 30  1  0
  7  8  1  0
  7 31  1  0
  7 32  1  0
  8 15  1  0
  8  9  1  1
  8 10  1  0
  9 33  1  0
 10 11  1  0
 10 34  1  0
 10 35  1  0
 11 24  1  0
 11 12  1  0
 11 36  1  6
 12 13  1  0
 12 37  1  0
 12 48  1  0
 13 14  1  0
 13 38  1  0
 13 39  1  0
 15 14  1  6
 14 40  1  0
 14 41  1  0
 15 24  1  0
 15 16  1  0
 16 17  1  0
 16 42  1  6
 17 18  1  0
 17 43  1  0
 17 44  1  0
 18 23  2  0
 18 19  1  0
 19 20  1  0
 20 21  1  0
 20 22  2  0
 21 45  1  0
 21 47  1  0
 22 23  1  0
 23 24  1  0
 24 25  1  6
 25 46  1  0
M  CHG  2   5  -1  12   1
M  END
>  <i_m_ct_stereo_status>  (237) 
1

>  <s_m_source_file>  (237) 
/var/tmp/pbs.5083858.sched01/tmp0tb1bq5q/100hrbsavei.sdf

>  <i_m_source_file_index>  (237) 
1

>  <i_lp_mmshare_version>  (237) 
48012

>  <i_f3d_flags>  (237) 
0

>  <s_epik_input>  (237) 
W09IXVtDQEBdMShbQ0BdMjM0KVtDSDJdW0NIMl1bQ0BAXShbQ0gzXSkoQyg9TylbT0hdKVtDQEBIXTNbQ0gyXWM1YyhbbkhdYyhcczUpPU5cW0hdKVtDQF00KFtPSF0pW0NASF0oW0NIMl0xKVtOSF1bQ0gyXVtDSDJdMg==

>  <s_epik_cmdline>  (237) 
J2VwaWtfcHl0aG9uJywgJy1waHQnLCAnMi4wJywgJy1waCcsICc3LjAnLCAnLXRuJywgJzgnLCAnLW1hJywgJzIwMCcsICctaW1hZScsICc8aW5maWxlLm1hZT4nLCAnLW9tYWUnLCAnPG91dGZpbGUubWFlPic=

>  <r_epik_Ionization_Penalty>  (237) 
0.0128762

>  <r_epik_Ionization_Penalty_Charging>  (237) 
0.00310884

>  <r_epik_Ionization_Penalty_Neutral>  (237) 
0.00976733

>  <r_epik_State_Penalty>  (237) 
0.00949297

>  <r_epik_Charging_Adjusted_Penalty>  (237) 
0.0126018

>  <i_epik_Tot_Q>  (237) 
0

>  <i_epik_Tot_abs_Q>  (237) 
2

>  <s_lp_Force_Field>  (237) 
OPLS3e

>  <r_lp_Energy>  (237) 
61.093

>  <b_lp_Chiralities_Consistent>  (237) 
1

>  <s_lp_Variant>  (237) 
71:0-1

>  <s_i_glide_gridfile>  (237) 
pfpi4k_grid

>  <i_i_glide_lignum>  (237) 
1

>  <i_i_glide_rotatable_bonds>  (237) 
3

>  <r_i_docking_score>  (237) 
-3.76931

>  <r_i_glide_ligand_efficiency>  (237) 
-0.150772

>  <r_i_glide_ligand_efficiency_sa>  (237) 
-0.440861

>  <r_i_glide_ligand_efficiency_ln>  (237) 
-0.893439

>  <r_i_glide_gscore>  (237) 
-3.76931

>  <r_i_glide_lipo>  (237) 
-0.0150705

>  <r_i_glide_hbond>  (237) 
-0.36

>  <r_i_glide_metal>  (237) 
-0

>  <r_i_glide_rewards>  (237) 
-0.964575

>  <r_i_glide_evdw>  (237) 
-18.4306

>  <r_i_glide_ecoul>  (237) 
-9.31394

>  <r_i_glide_erotb>  (237) 
0

>  <r_i_glide_esite>  (237) 
-0.111046

>  <r_i_glide_emodel>  (237) 
-38.2545

>  <r_i_glide_energy>  (237) 
-27.7445

>  <r_i_glide_einternal>  (237) 
0.371587

>  <r_i_glide_intrahb_reward>  (237) 
-0

>  <i_i_glide_confnum>  (237) 
2

>  <i_i_glide_posenum>  (237) 
5

>  <r_i_glide_eff_state_penalty>  (237) 
0

>  <ligand_id>  (237) 
71

>  <original_smiles>  (237) 
CC1(C(=O)O)CCC2(O)CC3NCCC24C1Cc1sc(=N)[nH]c1C34O

>  <smiles>  (237) 
[H]OC12c3nc(N([H])[H])sc3C([H])([H])C3([H])C(C(=O)[O-])(C([H])([H])[H])C([H])([H])C([H])([H])C4(O[H])C([H])([H])C1([H])[N+]([H])([H])C([H])([H])C([H])([H])C234

$$$$
71:0:1
     RDKit          3D

 48 52  0  0  1  0  0  0  0  0999 V2000
   -1.3118    1.4435    7.8182 C   0  0  0  0  0  0  0  0  0  0  0  0
   -0.5210    2.4237    6.9014 C   0  0  1  0  0  0  0  0  0  0  0  0
   -1.4328    3.6739    6.8454 C   0  0  0  0  0  0  0  0  0  0  0  0
   -2.5740    3.4991    6.3579 O   0  0  0  0  0  0  0  0  0  0  0  0
   -0.9931    4.7711    7.2532 O   0  0  0  0  0  0  0  0  0  0  0  0
    0.8386    2.7587    7.6155 C   0  0  0  0  0  0  0  0  0  0  0  0
    1.9447    3.4108    6.7360 C   0  0  0  0  0  0  0  0  0  0  0  0
    2.1229    2.5956    5.4461 C   0  0  2  0  0  0  0  0  0  0  0  0
    2.5366    1.3279    5.9338 O   0  0  0  0  0  0  0  0  0  0  0  0
    3.2350    2.9143    4.4244 C   0  0  0  0  0  0  0  0  0  0  0  0
    2.5585    2.7811    3.0241 C   0  0  2  0  0  0  0  0  0  0  0  0
    2.2205    4.1315    2.5132 N   0  0  0  0  0  0  0  0  0  0  0  0
    1.4240    4.9239    3.4716 C   0  0  0  0  0  0  0  0  0  0  0  0
    0.3636    4.0757    4.2207 C   0  0  0  0  0  0  0  0  0  0  0  0
    0.8008    2.6114    4.6119 C   0  0  2  0  0  0  0  0  0  0  0  0
   -0.3147    1.8434    5.4307 C   0  0  1  0  0  0  0  0  0  0  0  0
   -0.1715    0.2844    5.3957 C   0  0  0  0  0  0  0  0  0  0  0  0
    0.6703   -0.2482    4.2790 C   0  0  0  0  0  0  0  0  0  0  0  0
    0.9358   -1.9526    4.0371 S   0  0  0  0  0  0  0  0  0  0  0  0
    1.9848   -1.5537    2.6818 C   0  0  0  0  0  0  0  0  0  0  0  0
    2.6466   -2.5214    1.9499 N   0  0  0  0  0  0  0  0  0  0  0  0
    2.0910   -0.2500    2.4435 N   0  0  0  0  0  0  0  0  0  0  0  0
    1.3618    0.5042    3.3704 C   0  0  0  0  0  0  0  0  0  0  0  0
    1.2467    1.9959    3.2561 C   0  0  2  0  0  0  0  0  0  0  0  0
    0.3209    2.1390    2.1790 O   0  0  0  0  0  0  0  0  0  0  0  0
   -0.7296    0.5664    8.0993 H   0  0  0  0  0  0  0  0  0  0  0  0
   -2.2316    1.0960    7.3427 H   0  0  0  0  0  0  0  0  0  0  0  0
   -1.5987    1.9176    8.7588 H   0  0  0  0  0  0  0  0  0  0  0  0
    0.6600    3.4034    8.4723 H   0  0  0  0  0  0  0  0  0  0  0  0
    1.2284    1.8486    8.0735 H   0  0  0  0  0  0  0  0  0  0  0  0
    1.7049    4.4490    6.5129 H   0  0  0  0  0  0  0  0  0  0  0  0
    2.8787    3.4362    7.2967 H   0  0  0  0  0  0  0  0  0  0  0  0
    1.8788    1.0187    6.5360 H   0  0  0  0  0  0  0  0  0  0  0  0
    3.7007    3.8833    4.6002 H   0  0  0  0  0  0  0  0  0  0  0  0
    4.0564    2.1953    4.4818 H   0  0  0  0  0  0  0  0  0  0  0  0
    3.1960    2.2742    2.2995 H   0  0  0  0  0  0  0  0  0  0  0  0
    3.0627    4.6318    2.2760 H   0  0  0  0  0  0  0  0  0  0  0  0
    2.0945    5.4068    4.1868 H   0  0  0  0  0  0  0  0  0  0  0  0
    0.9331    5.7327    2.9352 H   0  0  0  0  0  0  0  0  0  0  0  0
    0.1105    4.6897    5.0726 H   0  0  0  0  0  0  0  0  0  0  0  0
   -0.5529    4.0283    3.6293 H   0  0  0  0  0  0  0  0  0  0  0  0
   -1.2293    2.0146    4.8599 H   0  0  0  0  0  0  0  0  0  0  0  0
    0.3036   -0.0805    6.3021 H   0  0  0  0  0  0  0  0  0  0  0  0
   -1.1533   -0.1869    5.3745 H   0  0  0  0  0  0  0  0  0  0  0  0
    3.2235   -2.2620    1.1652 H   0  0  0  0  0  0  0  0  0  0  0  0
    0.2190    3.0361    1.8579 H   0  0  0  0  0  0  0  0  0  0  0  0
    2.5527   -3.5049    2.1400 H   0  0  0  0  0  0  0  0  0  0  0  0
    1.6441    4.0519    1.6757 H   0  0  0  0  0  0  0  0  0  0  0  0
  2  1  1  1
  1 26  1  0
  1 27  1  0
  1 28  1  0
  2 16  1  0
  2  3  1  0
  2  6  1  0
  3  4  2  0
  3  5  1  0
  6  7  1  0
  6 29  1  0
  6 30  1  0
  7  8  1  0
  7 31  1  0
  7 32  1  0
  8 15  1  0
  8  9  1  1
  8 10  1  0
  9 33  1  0
 10 11  1  0
 10 34  1  0
 10 35  1  0
 11 24  1  0
 11 12  1  0
 11 36  1  6
 12 13  1  0
 12 37  1  0
 12 48  1  0
 13 14  1  0
 13 38  1  0
 13 39  1  0
 15 14  1  6
 14 40  1  0
 14 41  1  0
 15 24  1  0
 15 16  1  0
 16 17  1  0
 16 42  1  6
 17 18  1  0
 17 43  1  0
 17 44  1  0
 18 23  2  0
 18 19  1  0
 19 20  1  0
 20 21  1  0
 20 22  2  0
 21 45  1  0
 21 47  1  0
 22 23  1  0
 23 24  1  0
 24 25  1  6
 25 46  1  0
M  CHG  2   5  -1  12   1
M  END
>  <i_m_ct_stereo_status>  (238) 
1

>  <s_m_source_file>  (238) 
/var/tmp/pbs.5083858.sched01/tmp0tb1bq5q/100hrbsavei.sdf

>  <i_m_source_file_index>  (238) 
1

>  <i_lp_mmshare_version>  (238) 
48012

>  <i_f3d_flags>  (238) 
0

>  <s_epik_input>  (238) 
W09IXVtDQEBdMShbQ0BdMjM0KVtDSDJdW0NIMl1bQ0BAXShbQ0gzXSkoQyg9TylbT0hdKVtDQEBIXTNbQ0gyXWM1YyhbbkhdYyhcczUpPU5cW0hdKVtDQF00KFtPSF0pW0NASF0oW0NIMl0xKVtOSF1bQ0gyXVtDSDJdMg==

>  <s_epik_cmdline>  (238) 
J2VwaWtfcHl0aG9uJywgJy1waHQnLCAnMi4wJywgJy1waCcsICc3LjAnLCAnLXRuJywgJzgnLCAnLW1hJywgJzIwMCcsICctaW1hZScsICc8aW5maWxlLm1hZT4nLCAnLW9tYWUnLCAnPG91dGZpbGUubWFlPic=

>  <r_epik_Ionization_Penalty>  (238) 
0.0128762

>  <r_epik_Ionization_Penalty_Charging>  (238) 
0.00310884

>  <r_epik_Ionization_Penalty_Neutral>  (238) 
0.00976733

>  <r_epik_State_Penalty>  (238) 
0.00949297

>  <r_epik_Charging_Adjusted_Penalty>  (238) 
0.0126018

>  <i_epik_Tot_Q>  (238) 
0

>  <i_epik_Tot_abs_Q>  (238) 
2

>  <s_lp_Force_Field>  (238) 
OPLS3e

>  <r_lp_Energy>  (238) 
61.093

>  <b_lp_Chiralities_Consistent>  (238) 
1

>  <s_lp_Variant>  (238) 
71:0-1

>  <s_i_glide_gridfile>  (238) 
pfpi4k_grid

>  <i_i_glide_lignum>  (238) 
1

>  <i_i_glide_rotatable_bonds>  (238) 
3

>  <r_i_docking_score>  (238) 
-3.66933

>  <r_i_glide_ligand_efficiency>  (238) 
-0.146773

>  <r_i_glide_ligand_efficiency_sa>  (238) 
-0.429167

>  <r_i_glide_ligand_efficiency_ln>  (238) 
-0.869741

>  <r_i_glide_gscore>  (238) 
-3.66933

>  <r_i_glide_lipo>  (238) 
-0.0131137

>  <r_i_glide_hbond>  (238) 
-0.36

>  <r_i_glide_metal>  (238) 
-0

>  <r_i_glide_rewards>  (238) 
-0.962478

>  <r_i_glide_evdw>  (238) 
-18.5002

>  <r_i_glide_ecoul>  (238) 
-8.66624

>  <r_i_glide_erotb>  (238) 
0

>  <r_i_glide_esite>  (238) 
-0.108792

>  <r_i_glide_emodel>  (238) 
-37.4268

>  <r_i_glide_energy>  (238) 
-27.1664

>  <r_i_glide_einternal>  (238) 
0.456593

>  <r_i_glide_intrahb_reward>  (238) 
-0

>  <i_i_glide_confnum>  (238) 
2

>  <i_i_glide_posenum>  (238) 
34

>  <r_i_glide_eff_state_penalty>  (238) 
0

>  <ligand_id>  (238) 
71

>  <original_smiles>  (238) 
CC1(C(=O)O)CCC2(O)CC3NCCC24C1Cc1sc(=N)[nH]c1C34O

>  <smiles>  (238) 
[H]OC12c3nc(N([H])[H])sc3C([H])([H])C3([H])C(C(=O)[O-])(C([H])([H])[H])C([H])([H])C([H])([H])C4(O[H])C([H])([H])C1([H])[N+]([H])([H])C([H])([H])C([H])([H])C234

$$$$
71:0:2
     RDKit          3D

 48 52  0  0  1  0  0  0  0  0999 V2000
    1.2403   -4.5818    6.8912 C   0  0  0  0  0  0  0  0  0  0  0  0
    0.9405   -6.0113    6.3522 C   0  0  1  0  0  0  0  0  0  0  0  0
    0.9000   -6.8625    7.6493 C   0  0  0  0  0  0  0  0  0  0  0  0
   -0.1831   -6.9890    8.2604 O   0  0  0  0  0  0  0  0  0  0  0  0
    1.9689   -7.3442    8.0738 O   0  0  0  0  0  0  0  0  0  0  0  0
   -0.4720   -5.9578    5.6614 C   0  0  0  0  0  0  0  0  0  0  0  0
   -0.8379   -7.1363    4.7113 C   0  0  0  0  0  0  0  0  0  0  0  0
    0.3012   -7.3779    3.7124 C   0  0  2  0  0  0  0  0  0  0  0  0
    0.3572   -6.1630    2.9858 O   0  0  0  0  0  0  0  0  0  0  0  0
    0.1835   -8.4102    2.5693 C   0  0  0  0  0  0  0  0  0  0  0  0
    1.5582   -9.1287    2.5307 C   0  0  2  0  0  0  0  0  0  0  0  0
    1.4575  -10.4279    3.2373 N   0  0  0  0  0  0  0  0  0  0  0  0
    0.8965  -10.3191    4.6028 C   0  0  0  0  0  0  0  0  0  0  0  0
    1.4013   -9.0665    5.3635 C   0  0  0  0  0  0  0  0  0  0  0  0
    1.6013   -7.7697    4.4831 C   0  0  2  0  0  0  0  0  0  0  0  0
    2.0712   -6.5292    5.3446 C   0  0  1  0  0  0  0  0  0  0  0  0
    2.7500   -5.3861    4.5189 C   0  0  0  0  0  0  0  0  0  0  0  0
    3.2793   -5.8099    3.1892 C   0  0  0  0  0  0  0  0  0  0  0  0
    4.1026   -4.7095    2.1198 S   0  0  0  0  0  0  0  0  0  0  0  0
    4.2393   -6.0142    0.9519 C   0  0  0  0  0  0  0  0  0  0  0  0
    4.8502   -5.8331   -0.2682 N   0  0  0  0  0  0  0  0  0  0  0  0
    3.7175   -7.1726    1.3570 N   0  0  0  0  0  0  0  0  0  0  0  0
    3.1487   -7.0586    2.6298 C   0  0  0  0  0  0  0  0  0  0  0  0
    2.5391   -8.2337    3.3324 C   0  0  2  0  0  0  0  0  0  0  0  0
    3.6659   -8.9915    3.7470 O   0  0  0  0  0  0  0  0  0  0  0  0
    1.1396   -3.8062    6.1304 H   0  0  0  0  0  0  0  0  0  0  0  0
    2.2487   -4.5116    7.3044 H   0  0  0  0  0  0  0  0  0  0  0  0
    0.5465   -4.3009    7.6891 H   0  0  0  0  0  0  0  0  0  0  0  0
   -1.2645   -5.8508    6.3996 H   0  0  0  0  0  0  0  0  0  0  0  0
   -0.5542   -5.0265    5.1030 H   0  0  0  0  0  0  0  0  0  0  0  0
   -1.0535   -8.0436    5.2713 H   0  0  0  0  0  0  0  0  0  0  0  0
   -1.7573   -6.9010    4.1777 H   0  0  0  0  0  0  0  0  0  0  0  0
    0.7163   -5.5119    3.5715 H   0  0  0  0  0  0  0  0  0  0  0  0
   -0.6574   -9.0921    2.6998 H   0  0  0  0  0  0  0  0  0  0  0  0
    0.0273   -7.9273    1.6013 H   0  0  0  0  0  0  0  0  0  0  0  0
    1.9185   -9.3051    1.5147 H   0  0  0  0  0  0  0  0  0  0  0  0
    0.9017  -11.0742    2.6973 H   0  0  0  0  0  0  0  0  0  0  0  0
   -0.1816  -10.2949    4.5296 H   0  0  0  0  0  0  0  0  0  0  0  0
    1.1487  -11.2198    5.1650 H   0  0  0  0  0  0  0  0  0  0  0  0
    0.6905   -8.9353    6.1753 H   0  0  0  0  0  0  0  0  0  0  0  0
    2.3447   -9.3057    5.8629 H   0  0  0  0  0  0  0  0  0  0  0  0
    2.9193   -6.9129    5.9128 H   0  0  0  0  0  0  0  0  0  0  0  0
    2.0538   -4.5705    4.3259 H   0  0  0  0  0  0  0  0  0  0  0  0
    3.5557   -4.9396    5.1040 H   0  0  0  0  0  0  0  0  0  0  0  0
    4.8175   -6.5547   -0.9700 H   0  0  0  0  0  0  0  0  0  0  0  0
    4.1633   -9.2161    2.9741 H   0  0  0  0  0  0  0  0  0  0  0  0
    5.1756   -4.9342   -0.5851 H   0  0  0  0  0  0  0  0  0  0  0  0
    2.4001  -10.7792    3.3328 H   0  0  0  0  0  0  0  0  0  0  0  0
  2  1  1  1
  1 26  1  0
  1 27  1  0
  1 28  1  0
  2 16  1  0
  2  3  1  0
  2  6  1  0
  3  4  2  0
  3  5  1  0
  6  7  1  0
  6 29  1  0
  6 30  1  0
  7  8  1  0
  7 31  1  0
  7 32  1  0
  8 15  1  0
  8  9  1  6
  8 10  1  0
  9 33  1  0
 10 11  1  0
 10 34  1  0
 10 35  1  0
 11 24  1  0
 11 12  1  0
 11 36  1  6
 12 13  1  0
 12 37  1  0
 12 48  1  0
 13 14  1  0
 13 38  1  0
 13 39  1  0
 15 14  1  1
 14 40  1  0
 14 41  1  0
 15 24  1  0
 15 16  1  0
 16 17  1  0
 16 42  1  1
 17 18  1  0
 17 43  1  0
 17 44  1  0
 18 23  2  0
 18 19  1  0
 19 20  1  0
 20 21  1  0
 20 22  2  0
 21 45  1  0
 21 47  1  0
 22 23  1  0
 23 24  1  0
 24 25  1  1
 25 46  1  0
M  CHG  2   5  -1  12   1
M  END
>  <i_m_ct_stereo_status>  (239) 
1

>  <s_m_source_file>  (239) 
/var/tmp/pbs.5083858.sched01/tmp0tb1bq5q/100hrbsavei.sdf

>  <i_m_source_file_index>  (239) 
1

>  <i_lp_mmshare_version>  (239) 
48012

>  <i_f3d_flags>  (239) 
0

>  <s_epik_input>  (239) 
W09IXVtDQEBdMShbQ0BdMjM0KVtDSDJdW0NIMl1bQ0BAXShbQ0gzXSkoQyg9TylbT0hdKVtDQEBIXTNbQ0gyXWM1YyhbbkhdYyhcczUpPU5cW0hdKVtDQF00KFtPSF0pW0NASF0oW0NIMl0xKVtOSF1bQ0gyXVtDSDJdMg==

>  <s_epik_cmdline>  (239) 
J2VwaWtfcHl0aG9uJywgJy1waHQnLCAnMi4wJywgJy1waCcsICc3LjAnLCAnLXRuJywgJzgnLCAnLW1hJywgJzIwMCcsICctaW1hZScsICc8aW5maWxlLm1hZT4nLCAnLW9tYWUnLCAnPG91dGZpbGUubWFlPic=

>  <r_epik_Ionization_Penalty>  (239) 
0.0128762

>  <r_epik_Ionization_Penalty_Charging>  (239) 
0.00310884

>  <r_epik_Ionization_Penalty_Neutral>  (239) 
0.00976733

>  <r_epik_State_Penalty>  (239) 
0.00949297

>  <r_epik_Charging_Adjusted_Penalty>  (239) 
0.0126018

>  <i_epik_Tot_Q>  (239) 
0

>  <i_epik_Tot_abs_Q>  (239) 
2

>  <s_lp_Force_Field>  (239) 
OPLS3e

>  <r_lp_Energy>  (239) 
61.093

>  <b_lp_Chiralities_Consistent>  (239) 
1

>  <s_lp_Variant>  (239) 
71:0-1

>  <s_i_glide_gridfile>  (239) 
pfpi4k_grid

>  <i_i_glide_lignum>  (239) 
1

>  <i_i_glide_rotatable_bonds>  (239) 
3

>  <r_i_docking_score>  (239) 
-3.33657

>  <r_i_glide_ligand_efficiency>  (239) 
-0.133463

>  <r_i_glide_ligand_efficiency_sa>  (239) 
-0.390247

>  <r_i_glide_ligand_efficiency_ln>  (239) 
-0.790867

>  <r_i_glide_gscore>  (239) 
-3.33657

>  <r_i_glide_lipo>  (239) 
-0.120126

>  <r_i_glide_hbond>  (239) 
-0.142623

>  <r_i_glide_metal>  (239) 
-0

>  <r_i_glide_rewards>  (239) 
-0.917398

>  <r_i_glide_evdw>  (239) 
-19.8183

>  <r_i_glide_ecoul>  (239) 
-7.6946

>  <r_i_glide_erotb>  (239) 
0

>  <r_i_glide_esite>  (239) 
-0.0113171

>  <r_i_glide_emodel>  (239) 
-36.3075

>  <r_i_glide_energy>  (239) 
-27.5129

>  <r_i_glide_einternal>  (239) 
1.49246

>  <r_i_glide_intrahb_reward>  (239) 
-0

>  <i_i_glide_confnum>  (239) 
1

>  <i_i_glide_posenum>  (239) 
29

>  <r_i_glide_eff_state_penalty>  (239) 
0

>  <ligand_id>  (239) 
71

>  <original_smiles>  (239) 
CC1(C(=O)O)CCC2(O)CC3NCCC24C1Cc1sc(=N)[nH]c1C34O

>  <smiles>  (239) 
[H]OC12c3nc(N([H])[H])sc3C([H])([H])C3([H])C(C(=O)[O-])(C([H])([H])[H])C([H])([H])C([H])([H])C4(O[H])C([H])([H])C1([H])[N+]([H])([H])C([H])([H])C([H])([H])C234

$$$$
71:1:0
     RDKit          3D

 49 53  0  0  1  0  0  0  0  0999 V2000
    1.1042    4.8640    9.9844 C   0  0  0  0  0  0  0  0  0  0  0  0
    1.8146    5.5758    8.7933 C   0  0  1  0  0  0  0  0  0  0  0  0
    2.1331    6.9877    9.3624 C   0  0  0  0  0  0  0  0  0  0  0  0
    3.3295    7.3090    9.5531 O   0  0  0  0  0  0  0  0  0  0  0  0
    1.1627    7.7409    9.5879 O   0  0  0  0  0  0  0  0  0  0  0  0
    3.1360    4.7778    8.4838 C   0  0  0  0  0  0  0  0  0  0  0  0
    3.8153    5.0515    7.1103 C   0  0  0  0  0  0  0  0  0  0  0  0
    2.7726    4.9411    5.9833 C   0  0  2  0  0  0  0  0  0  0  0  0
    2.3458    3.5830    6.0761 O   0  0  0  0  0  0  0  0  0  0  0  0
    3.1695    5.0624    4.4894 C   0  0  0  0  0  0  0  0  0  0  0  0
    2.0780    5.9621    3.8403 C   0  0  2  0  0  0  0  0  0  0  0  0
    2.6012    7.3476    3.7148 N   0  0  0  0  0  0  0  0  0  0  0  0
    3.1296    7.8959    4.9819 C   0  0  0  0  0  0  0  0  0  0  0  0
    2.2804    7.4978    6.2123 C   0  0  0  0  0  0  0  0  0  0  0  0
    1.6754    6.0340    6.1896 C   0  0  2  0  0  0  0  0  0  0  0  0
    0.8737    5.7045    7.5079 C   0  0  1  0  0  0  0  0  0  0  0  0
   -0.1422    4.5277    7.3442 C   0  0  0  0  0  0  0  0  0  0  0  0
   -0.5559    4.2257    5.9358 C   0  0  0  0  0  0  0  0  0  0  0  0
   -1.7021    2.9619    5.5862 S   0  0  0  0  0  0  0  0  0  0  0  0
   -1.5099    3.2541    3.8851 C   0  0  0  0  0  0  0  0  0  0  0  0
   -2.1153    2.6037    2.8913 N   0  0  0  0  0  0  0  0  0  0  0  0
   -0.6392    4.2446    3.6542 N   0  0  0  0  0  0  0  0  0  0  0  0
   -0.0732    4.8206    4.7902 C   0  0  0  0  0  0  0  0  0  0  0  0
    0.8937    5.9777    4.8459 C   0  0  2  0  0  0  0  0  0  0  0  0
    0.0531    7.1055    4.6355 O   0  0  0  0  0  0  0  0  0  0  0  0
   -0.3876    4.5152    2.7011 H   0  0  0  0  0  0  0  0  0  0  0  0
    0.9479    3.7981    9.8127 H   0  0  0  0  0  0  0  0  0  0  0  0
    0.1284    5.3062   10.2034 H   0  0  0  0  0  0  0  0  0  0  0  0
    1.6929    4.9288   10.9030 H   0  0  0  0  0  0  0  0  0  0  0  0
    3.8731    4.9323    9.2711 H   0  0  0  0  0  0  0  0  0  0  0  0
    2.9236    3.7110    8.5573 H   0  0  0  0  0  0  0  0  0  0  0  0
    4.3058    6.0239    7.1161 H   0  0  0  0  0  0  0  0  0  0  0  0
    4.6138    4.3283    6.9515 H   0  0  0  0  0  0  0  0  0  0  0  0
    1.6699    3.4126    5.4382 H   0  0  0  0  0  0  0  0  0  0  0  0
    4.1845    5.4394    4.3597 H   0  0  0  0  0  0  0  0  0  0  0  0
    3.1622    4.0926    3.9902 H   0  0  0  0  0  0  0  0  0  0  0  0
    1.7793    5.6152    2.8502 H   0  0  0  0  0  0  0  0  0  0  0  0
    3.3268    7.3784    3.0156 H   0  0  0  0  0  0  0  0  0  0  0  0
    4.1551    7.5580    5.1093 H   0  0  0  0  0  0  0  0  0  0  0  0
    3.1858    8.9744    4.8968 H   0  0  0  0  0  0  0  0  0  0  0  0
    2.9330    7.6818    7.0563 H   0  0  0  0  0  0  0  0  0  0  0  0
    1.4732    8.2229    6.3449 H   0  0  0  0  0  0  0  0  0  0  0  0
    0.2182    6.5620    7.6473 H   0  0  0  0  0  0  0  0  0  0  0  0
    0.2850    3.6077    7.7405 H   0  0  0  0  0  0  0  0  0  0  0  0
   -1.0246    4.7158    7.9566 H   0  0  0  0  0  0  0  0  0  0  0  0
   -1.9158    2.8048    1.9196 H   0  0  0  0  0  0  0  0  0  0  0  0
    0.1753    7.4529    3.7543 H   0  0  0  0  0  0  0  0  0  0  0  0
   -2.7624    1.8370    3.0440 H   0  0  0  0  0  0  0  0  0  0  0  0
    1.8421    7.9454    3.4087 H   0  0  0  0  0  0  0  0  0  0  0  0
  2  1  1  1
  1 27  1  0
  1 28  1  0
  1 29  1  0
  2 16  1  0
  2  3  1  0
  2  6  1  0
  3  4  2  0
  3  5  1  0
  6  7  1  0
  6 30  1  0
  6 31  1  0
  7  8  1  0
  7 32  1  0
  7 33  1  0
  8 15  1  0
  8  9  1  6
  8 10  1  0
  9 34  1  0
 10 11  1  0
 10 35  1  0
 10 36  1  0
 11 24  1  0
 11 12  1  0
 11 37  1  6
 12 13  1  0
 12 38  1  0
 12 49  1  0
 13 14  1  0
 13 39  1  0
 13 40  1  0
 15 14  1  1
 14 41  1  0
 14 42  1  0
 15 24  1  0
 15 16  1  0
 16 17  1  0
 16 43  1  1
 17 18  1  0
 17 44  1  0
 17 45  1  0
 18 23  2  0
 18 19  1  0
 19 20  1  0
 20 21  1  0
 20 22  2  0
 21 46  1  0
 21 48  1  0
 22 26  1  0
 22 23  1  0
 23 24  1  0
 24 25  1  6
 25 47  1  0
M  CHG  3   5  -1  12   1  22   1
M  END
>  <i_m_ct_stereo_status>  (240) 
1

>  <s_m_source_file>  (240) 
/var/tmp/pbs.5083858.sched01/tmp0tb1bq5q/100hrbsavei.sdf

>  <i_m_source_file_index>  (240) 
2

>  <i_lp_mmshare_version>  (240) 
48012

>  <i_f3d_flags>  (240) 
0

>  <s_epik_input>  (240) 
W09IXVtDQEBdMShbQ0BdMjM0KVtDSDJdW0NIMl1bQ0BAXShbQ0gzXSkoQyg9TylbT0hdKVtDQEBIXTNbQ0gyXWM1YyhbbkhdYyhcczUpPU5cW0hdKVtDQF00KFtPSF0pW0NASF0oW0NIMl0xKVtOSF1bQ0gyXVtDSDJdMg==

>  <s_epik_cmdline>  (240) 
J2VwaWtfcHl0aG9uJywgJy1waHQnLCAnMi4wJywgJy1waCcsICc3LjAnLCAnLXRuJywgJzgnLCAnLW1hJywgJzIwMCcsICctaW1hZScsICc8aW5maWxlLm1hZT4nLCAnLW9tYWUnLCAnPG91dGZpbGUubWFlPic=

>  <r_lp_tautomer_probability>  (240) 
1

>  <r_epik_Ionization_Penalty>  (240) 
2.45018

>  <r_epik_Ionization_Penalty_Charging>  (240) 
2.44141

>  <r_epik_Ionization_Penalty_Neutral>  (240) 
0.00877212

>  <r_epik_State_Penalty>  (240) 
2.59991

>  <r_epik_Charging_Adjusted_Penalty>  (240) 
5.04132

>  <i_epik_Tot_Q>  (240) 
1

>  <i_epik_Tot_abs_Q>  (240) 
3

>  <s_lp_Force_Field>  (240) 
OPLS3e

>  <r_lp_Energy>  (240) 
64.0476

>  <b_lp_Chiralities_Consistent>  (240) 
1

>  <s_lp_Variant>  (240) 
71:0-2

>  <s_i_glide_gridfile>  (240) 
pfpi4k_grid

>  <i_i_glide_lignum>  (240) 
2

>  <i_i_glide_rotatable_bonds>  (240) 
3

>  <r_i_docking_score>  (240) 
-4.2461

>  <r_i_glide_ligand_efficiency>  (240) 
-0.169844

>  <r_i_glide_ligand_efficiency_sa>  (240) 
-0.496626

>  <r_i_glide_ligand_efficiency_ln>  (240) 
-1.00645

>  <r_i_glide_gscore>  (240) 
-4.2461

>  <r_i_glide_lipo>  (240) 
-0.0193494

>  <r_i_glide_hbond>  (240) 
-0.562365

>  <r_i_glide_metal>  (240) 
-0

>  <r_i_glide_rewards>  (240) 
-0.910526

>  <r_i_glide_evdw>  (240) 
-13.532

>  <r_i_glide_ecoul>  (240) 
-12.6606

>  <r_i_glide_erotb>  (240) 
0

>  <r_i_glide_esite>  (240) 
-0.17817

>  <r_i_glide_emodel>  (240) 
-39.8084

>  <r_i_glide_energy>  (240) 
-26.1926

>  <r_i_glide_einternal>  (240) 
1.86408

>  <r_i_glide_intrahb_reward>  (240) 
-0

>  <i_i_glide_confnum>  (240) 
2

>  <i_i_glide_posenum>  (240) 
10

>  <r_i_glide_eff_state_penalty>  (240) 
0

>  <ligand_id>  (240) 
71

>  <original_smiles>  (240) 
CC1(C(=O)O)CCC2(O)CC3NCCC24C1Cc1sc(=N)[nH]c1C34O

>  <smiles>  (240) 
[H]OC12c3c(sc(N([H])[H])[n+]3[H])C([H])([H])C3([H])C(C(=O)[O-])(C([H])([H])[H])C([H])([H])C([H])([H])C4(O[H])C([H])([H])C1([H])[N+]([H])([H])C([H])([H])C([H])([H])C234

$$$$
71:1:1
     RDKit          3D

 49 53  0  0  1  0  0  0  0  0999 V2000
   -0.6827    3.5755    9.2304 C   0  0  0  0  0  0  0  0  0  0  0  0
    0.0185    4.6226    8.3134 C   0  0  1  0  0  0  0  0  0  0  0  0
   -0.6128    5.9688    8.7662 C   0  0  0  0  0  0  0  0  0  0  0  0
   -1.8152    6.1485    8.4830 O   0  0  0  0  0  0  0  0  0  0  0  0
    0.1030    6.8110    9.3583 O   0  0  0  0  0  0  0  0  0  0  0  0
    1.5578    4.5856    8.6350 C   0  0  0  0  0  0  0  0  0  0  0  0
    2.5052    5.2547    7.5970 C   0  0  0  0  0  0  0  0  0  0  0  0
    2.1792    4.7347    6.1862 C   0  0  2  0  0  0  0  0  0  0  0  0
    2.4495    3.3373    6.2932 O   0  0  0  0  0  0  0  0  0  0  0  0
    3.0242    5.1372    4.9517 C   0  0  0  0  0  0  0  0  0  0  0  0
    1.9988    5.4380    3.8204 C   0  0  2  0  0  0  0  0  0  0  0  0
    1.8103    6.9083    3.7152 N   0  0  0  0  0  0  0  0  0  0  0  0
    1.4691    7.5532    4.9993 C   0  0  0  0  0  0  0  0  0  0  0  0
    0.5016    6.7043    5.8612 C   0  0  0  0  0  0  0  0  0  0  0  0
    0.7179    5.1388    5.8114 C   0  0  2  0  0  0  0  0  0  0  0  0
   -0.2783    4.3709    6.7640 C   0  0  1  0  0  0  0  0  0  0  0  0
   -0.4609    2.8635    6.3896 C   0  0  0  0  0  0  0  0  0  0  0  0
   -0.0795    2.4936    4.9904 C   0  0  0  0  0  0  0  0  0  0  0  0
   -0.2655    0.8692    4.3949 S   0  0  0  0  0  0  0  0  0  0  0  0
    0.4642    1.3337    2.8888 C   0  0  0  0  0  0  0  0  0  0  0  0
    0.6937    0.5444    1.8417 N   0  0  0  0  0  0  0  0  0  0  0  0
    0.7703    2.6341    2.8748 N   0  0  0  0  0  0  0  0  0  0  0  0
    0.4877    3.3267    4.0523 C   0  0  0  0  0  0  0  0  0  0  0  0
    0.6620    4.7966    4.2945 C   0  0  2  0  0  0  0  0  0  0  0  0
   -0.4383    5.3522    3.5876 O   0  0  0  0  0  0  0  0  0  0  0  0
    1.0943    3.1004    2.0327 H   0  0  0  0  0  0  0  0  0  0  0  0
   -0.2361    2.5830    9.1601 H   0  0  0  0  0  0  0  0  0  0  0  0
   -1.7475    3.4727    9.0021 H   0  0  0  0  0  0  0  0  0  0  0  0
   -0.6136    3.8511   10.2855 H   0  0  0  0  0  0  0  0  0  0  0  0
    1.7558    5.0193    9.6145 H   0  0  0  0  0  0  0  0  0  0  0  0
    1.8617    3.5460    8.7681 H   0  0  0  0  0  0  0  0  0  0  0  0
    2.4318    6.3398    7.6590 H   0  0  0  0  0  0  0  0  0  0  0  0
    3.5373    5.0217    7.8544 H   0  0  0  0  0  0  0  0  0  0  0  0
    2.2212    2.9010    5.4870 H   0  0  0  0  0  0  0  0  0  0  0  0
    3.6993    5.9641    5.1652 H   0  0  0  0  0  0  0  0  0  0  0  0
    3.6741    4.3239    4.6278 H   0  0  0  0  0  0  0  0  0  0  0  0
    2.3180    5.0586    2.8494 H   0  0  0  0  0  0  0  0  0  0  0  0
    2.6351    7.3401    3.3368 H   0  0  0  0  0  0  0  0  0  0  0  0
    2.3866    7.7514    5.5501 H   0  0  0  0  0  0  0  0  0  0  0  0
    1.0356    8.5278    4.7953 H   0  0  0  0  0  0  0  0  0  0  0  0
    0.5993    7.1227    6.8545 H   0  0  0  0  0  0  0  0  0  0  0  0
   -0.5260    6.9321    5.5801 H   0  0  0  0  0  0  0  0  0  0  0  0
   -1.2547    4.7853    6.5280 H   0  0  0  0  0  0  0  0  0  0  0  0
    0.1533    2.2411    7.0372 H   0  0  0  0  0  0  0  0  0  0  0  0
   -1.4882    2.5540    6.5873 H   0  0  0  0  0  0  0  0  0  0  0  0
    1.0423    0.8790    0.9483 H   0  0  0  0  0  0  0  0  0  0  0  0
   -0.3410    5.1127    2.6700 H   0  0  0  0  0  0  0  0  0  0  0  0
    0.4537   -0.4361    1.8334 H   0  0  0  0  0  0  0  0  0  0  0  0
    1.0296    7.1091    3.0872 H   0  0  0  0  0  0  0  0  0  0  0  0
  2  1  1  1
  1 27  1  0
  1 28  1  0
  1 29  1  0
  2 16  1  0
  2  3  1  0
  2  6  1  0
  3  4  2  0
  3  5  1  0
  6  7  1  0
  6 30  1  0
  6 31  1  0
  7  8  1  0
  7 32  1  0
  7 33  1  0
  8 15  1  0
  8  9  1  1
  8 10  1  0
  9 34  1  0
 10 11  1  0
 10 35  1  0
 10 36  1  0
 11 24  1  0
 11 12  1  0
 11 37  1  6
 12 13  1  0
 12 38  1  0
 12 49  1  0
 13 14  1  0
 13 39  1  0
 13 40  1  0
 15 14  1  6
 14 41  1  0
 14 42  1  0
 15 24  1  0
 15 16  1  0
 16 17  1  0
 16 43  1  6
 17 18  1  0
 17 44  1  0
 17 45  1  0
 18 23  2  0
 18 19  1  0
 19 20  1  0
 20 21  1  0
 20 22  2  0
 21 46  1  0
 21 48  1  0
 22 26  1  0
 22 23  1  0
 23 24  1  0
 24 25  1  6
 25 47  1  0
M  CHG  3   5  -1  12   1  22   1
M  END
>  <i_m_ct_stereo_status>  (241) 
1

>  <s_m_source_file>  (241) 
/var/tmp/pbs.5083858.sched01/tmp0tb1bq5q/100hrbsavei.sdf

>  <i_m_source_file_index>  (241) 
2

>  <i_lp_mmshare_version>  (241) 
48012

>  <i_f3d_flags>  (241) 
0

>  <s_epik_input>  (241) 
W09IXVtDQEBdMShbQ0BdMjM0KVtDSDJdW0NIMl1bQ0BAXShbQ0gzXSkoQyg9TylbT0hdKVtDQEBIXTNbQ0gyXWM1YyhbbkhdYyhcczUpPU5cW0hdKVtDQF00KFtPSF0pW0NASF0oW0NIMl0xKVtOSF1bQ0gyXVtDSDJdMg==

>  <s_epik_cmdline>  (241) 
J2VwaWtfcHl0aG9uJywgJy1waHQnLCAnMi4wJywgJy1waCcsICc3LjAnLCAnLXRuJywgJzgnLCAnLW1hJywgJzIwMCcsICctaW1hZScsICc8aW5maWxlLm1hZT4nLCAnLW9tYWUnLCAnPG91dGZpbGUubWFlPic=

>  <r_lp_tautomer_probability>  (241) 
1

>  <r_epik_Ionization_Penalty>  (241) 
2.45018

>  <r_epik_Ionization_Penalty_Charging>  (241) 
2.44141

>  <r_epik_Ionization_Penalty_Neutral>  (241) 
0.00877212

>  <r_epik_State_Penalty>  (241) 
2.59991

>  <r_epik_Charging_Adjusted_Penalty>  (241) 
5.04132

>  <i_epik_Tot_Q>  (241) 
1

>  <i_epik_Tot_abs_Q>  (241) 
3

>  <s_lp_Force_Field>  (241) 
OPLS3e

>  <r_lp_Energy>  (241) 
64.0476

>  <b_lp_Chiralities_Consistent>  (241) 
1

>  <s_lp_Variant>  (241) 
71:0-2

>  <s_i_glide_gridfile>  (241) 
pfpi4k_grid

>  <i_i_glide_lignum>  (241) 
2

>  <i_i_glide_rotatable_bonds>  (241) 
3

>  <r_i_docking_score>  (241) 
-4.00539

>  <r_i_glide_ligand_efficiency>  (241) 
-0.160215

>  <r_i_glide_ligand_efficiency_sa>  (241) 
-0.468473

>  <r_i_glide_ligand_efficiency_ln>  (241) 
-0.949396

>  <r_i_glide_gscore>  (241) 
-4.00539

>  <r_i_glide_lipo>  (241) 
0

>  <r_i_glide_hbond>  (241) 
-0.486996

>  <r_i_glide_metal>  (241) 
-0

>  <r_i_glide_rewards>  (241) 
-0.910526

>  <r_i_glide_evdw>  (241) 
-16.3629

>  <r_i_glide_ecoul>  (241) 
-10.3333

>  <r_i_glide_erotb>  (241) 
0

>  <r_i_glide_esite>  (241) 
-0.239719

>  <r_i_glide_emodel>  (241) 
-40.1916

>  <r_i_glide_energy>  (241) 
-26.6962

>  <r_i_glide_einternal>  (241) 
0.818693

>  <r_i_glide_intrahb_reward>  (241) 
-0

>  <i_i_glide_confnum>  (241) 
2

>  <i_i_glide_posenum>  (241) 
25

>  <r_i_glide_eff_state_penalty>  (241) 
0

>  <ligand_id>  (241) 
71

>  <original_smiles>  (241) 
CC1(C(=O)O)CCC2(O)CC3NCCC24C1Cc1sc(=N)[nH]c1C34O

>  <smiles>  (241) 
[H]OC12c3c(sc(N([H])[H])[n+]3[H])C([H])([H])C3([H])C(C(=O)[O-])(C([H])([H])[H])C([H])([H])C([H])([H])C4(O[H])C([H])([H])C1([H])[N+]([H])([H])C([H])([H])C([H])([H])C234

$$$$
71:1:2
     RDKit          3D

 49 53  0  0  1  0  0  0  0  0999 V2000
    2.2805   -3.9108    5.5662 C   0  0  0  0  0  0  0  0  0  0  0  0
    1.5243   -5.2578    5.7939 C   0  0  1  0  0  0  0  0  0  0  0  0
    1.1448   -5.2033    7.2998 C   0  0  0  0  0  0  0  0  0  0  0  0
    2.0971   -5.1718    8.1108 O   0  0  0  0  0  0  0  0  0  0  0  0
   -0.0599   -5.1964    7.6338 O   0  0  0  0  0  0  0  0  0  0  0  0
    0.2374   -5.2358    4.8972 C   0  0  0  0  0  0  0  0  0  0  0  0
   -0.4725   -6.6008    4.6602 C   0  0  0  0  0  0  0  0  0  0  0  0
    0.5566   -7.6417    4.1940 C   0  0  2  0  0  0  0  0  0  0  0  0
    1.0170   -7.0894    2.9609 O   0  0  0  0  0  0  0  0  0  0  0  0
    0.1380   -9.0735    3.7769 C   0  0  0  0  0  0  0  0  0  0  0  0
    1.1913  -10.0258    4.4226 C   0  0  2  0  0  0  0  0  0  0  0  0
    0.6137  -10.6155    5.6553 N   0  0  0  0  0  0  0  0  0  0  0  0
    0.0967   -9.6044    6.5931 C   0  0  0  0  0  0  0  0  0  0  0  0
    0.9737   -8.3390    6.6788 C   0  0  0  0  0  0  0  0  0  0  0  0
    1.6231   -7.8612    5.3197 C   0  0  2  0  0  0  0  0  0  0  0  0
    2.4434   -6.5274    5.4980 C   0  0  1  0  0  0  0  0  0  0  0  0
    3.4972   -6.2992    4.3646 C   0  0  0  0  0  0  0  0  0  0  0  0
    3.8875   -7.5123    3.5899 C   0  0  0  0  0  0  0  0  0  0  0  0
    5.0842   -7.4319    2.3250 S   0  0  0  0  0  0  0  0  0  0  0  0
    4.8581   -9.1198    2.0169 C   0  0  0  0  0  0  0  0  0  0  0  0
    5.4937   -9.8524    1.1124 N   0  0  0  0  0  0  0  0  0  0  0  0
    3.9285   -9.6592    2.8043 N   0  0  0  0  0  0  0  0  0  0  0  0
    3.3634   -8.7775    3.7179 C   0  0  0  0  0  0  0  0  0  0  0  0
    2.3881   -9.1169    4.8104 C   0  0  2  0  0  0  0  0  0  0  0  0
    3.2446   -9.7514    5.7547 O   0  0  0  0  0  0  0  0  0  0  0  0
    3.7061  -10.6478    2.7543 H   0  0  0  0  0  0  0  0  0  0  0  0
    2.4734   -3.7028    4.5140 H   0  0  0  0  0  0  0  0  0  0  0  0
    3.2410   -3.8860    6.0849 H   0  0  0  0  0  0  0  0  0  0  0  0
    1.7029   -3.0582    5.9346 H   0  0  0  0  0  0  0  0  0  0  0  0
   -0.4883   -4.5331    5.3056 H   0  0  0  0  0  0  0  0  0  0  0  0
    0.4923   -4.7950    3.9333 H   0  0  0  0  0  0  0  0  0  0  0  0
   -0.9893   -6.9179    5.5588 H   0  0  0  0  0  0  0  0  0  0  0  0
   -1.2446   -6.4777    3.9042 H   0  0  0  0  0  0  0  0  0  0  0  0
    1.7157   -7.6253    2.6192 H   0  0  0  0  0  0  0  0  0  0  0  0
   -0.8900   -9.3039    4.0552 H   0  0  0  0  0  0  0  0  0  0  0  0
    0.1684   -9.1985    2.6924 H   0  0  0  0  0  0  0  0  0  0  0  0
    1.4921  -10.8316    3.7471 H   0  0  0  0  0  0  0  0  0  0  0  0
   -0.1654  -11.2125    5.4023 H   0  0  0  0  0  0  0  0  0  0  0  0
   -0.9218   -9.3447    6.2957 H   0  0  0  0  0  0  0  0  0  0  0  0
    0.0006  -10.0616    7.5780 H   0  0  0  0  0  0  0  0  0  0  0  0
    0.3131   -7.6078    7.1276 H   0  0  0  0  0  0  0  0  0  0  0  0
    1.7594   -8.4885    7.4237 H   0  0  0  0  0  0  0  0  0  0  0  0
    3.0663   -6.7035    6.3770 H   0  0  0  0  0  0  0  0  0  0  0  0
    3.1122   -5.5946    3.6276 H   0  0  0  0  0  0  0  0  0  0  0  0
    4.3896   -5.8200    4.7735 H   0  0  0  0  0  0  0  0  0  0  0  0
    5.1640  -10.7963    0.8855 H   0  0  0  0  0  0  0  0  0  0  0  0
    2.7315  -10.1718    6.4270 H   0  0  0  0  0  0  0  0  0  0  0  0
    6.1375   -9.4565    0.4447 H   0  0  0  0  0  0  0  0  0  0  0  0
    1.2816  -11.1912    6.1651 H   0  0  0  0  0  0  0  0  0  0  0  0
  2  1  1  6
  1 27  1  0
  1 28  1  0
  1 29  1  0
  2 16  1  0
  2  3  1  0
  2  6  1  0
  3  4  2  0
  3  5  1  0
  6  7  1  0
  6 30  1  0
  6 31  1  0
  7  8  1  0
  7 32  1  0
  7 33  1  0
  8 15  1  0
  8  9  1  6
  8 10  1  0
  9 34  1  0
 10 11  1  0
 10 35  1  0
 10 36  1  0
 11 24  1  0
 11 12  1  0
 11 37  1  6
 12 13  1  0
 12 38  1  0
 12 49  1  0
 13 14  1  0
 13 39  1  0
 13 40  1  0
 15 14  1  1
 14 41  1  0
 14 42  1  0
 15 24  1  0
 15 16  1  0
 16 17  1  0
 16 43  1  1
 17 18  1  0
 17 44  1  0
 17 45  1  0
 18 23  2  0
 18 19  1  0
 19 20  1  0
 20 21  1  0
 20 22  2  0
 21 46  1  0
 21 48  1  0
 22 26  1  0
 22 23  1  0
 23 24  1  0
 24 25  1  1
 25 47  1  0
M  CHG  3   5  -1  12   1  22   1
M  END
>  <i_m_ct_stereo_status>  (242) 
1

>  <s_m_source_file>  (242) 
/var/tmp/pbs.5083858.sched01/tmp0tb1bq5q/100hrbsavei.sdf

>  <i_m_source_file_index>  (242) 
2

>  <i_lp_mmshare_version>  (242) 
48012

>  <i_f3d_flags>  (242) 
0

>  <s_epik_input>  (242) 
W09IXVtDQEBdMShbQ0BdMjM0KVtDSDJdW0NIMl1bQ0BAXShbQ0gzXSkoQyg9TylbT0hdKVtDQEBIXTNbQ0gyXWM1YyhbbkhdYyhcczUpPU5cW0hdKVtDQF00KFtPSF0pW0NASF0oW0NIMl0xKVtOSF1bQ0gyXVtDSDJdMg==

>  <s_epik_cmdline>  (242) 
J2VwaWtfcHl0aG9uJywgJy1waHQnLCAnMi4wJywgJy1waCcsICc3LjAnLCAnLXRuJywgJzgnLCAnLW1hJywgJzIwMCcsICctaW1hZScsICc8aW5maWxlLm1hZT4nLCAnLW9tYWUnLCAnPG91dGZpbGUubWFlPic=

>  <r_lp_tautomer_probability>  (242) 
1

>  <r_epik_Ionization_Penalty>  (242) 
2.45018

>  <r_epik_Ionization_Penalty_Charging>  (242) 
2.44141

>  <r_epik_Ionization_Penalty_Neutral>  (242) 
0.00877212

>  <r_epik_State_Penalty>  (242) 
2.59991

>  <r_epik_Charging_Adjusted_Penalty>  (242) 
5.04132

>  <i_epik_Tot_Q>  (242) 
1

>  <i_epik_Tot_abs_Q>  (242) 
3

>  <s_lp_Force_Field>  (242) 
OPLS3e

>  <r_lp_Energy>  (242) 
64.0476

>  <b_lp_Chiralities_Consistent>  (242) 
1

>  <s_lp_Variant>  (242) 
71:0-2

>  <s_i_glide_gridfile>  (242) 
pfpi4k_grid

>  <i_i_glide_lignum>  (242) 
2

>  <i_i_glide_rotatable_bonds>  (242) 
3

>  <r_i_docking_score>  (242) 
-3.94183

>  <r_i_glide_ligand_efficiency>  (242) 
-0.157673

>  <r_i_glide_ligand_efficiency_sa>  (242) 
-0.461039

>  <r_i_glide_ligand_efficiency_ln>  (242) 
-0.934331

>  <r_i_glide_gscore>  (242) 
-3.94183

>  <r_i_glide_lipo>  (242) 
-0.00502879

>  <r_i_glide_hbond>  (242) 
-0.510758

>  <r_i_glide_metal>  (242) 
-0

>  <r_i_glide_rewards>  (242) 
-0.910526

>  <r_i_glide_evdw>  (242) 
-16.9758

>  <r_i_glide_ecoul>  (242) 
-9.76196

>  <r_i_glide_erotb>  (242) 
0

>  <r_i_glide_esite>  (242) 
-0.202432

>  <r_i_glide_emodel>  (242) 
-39.8874

>  <r_i_glide_energy>  (242) 
-26.7377

>  <r_i_glide_einternal>  (242) 
0.52826

>  <r_i_glide_intrahb_reward>  (242) 
-0

>  <i_i_glide_confnum>  (242) 
1

>  <i_i_glide_posenum>  (242) 
24

>  <r_i_glide_eff_state_penalty>  (242) 
0

>  <ligand_id>  (242) 
71

>  <original_smiles>  (242) 
CC1(C(=O)O)CCC2(O)CC3NCCC24C1Cc1sc(=N)[nH]c1C34O

>  <smiles>  (242) 
[H]OC12c3c(sc(N([H])[H])[n+]3[H])C([H])([H])C3([H])C(C(=O)[O-])(C([H])([H])[H])C([H])([H])C([H])([H])C4(O[H])C([H])([H])C1([H])[N+]([H])([H])C([H])([H])C([H])([H])C234

$$$$
72:0:0
     RDKit          3D

 89 97  0  0  1  0  0  0  0  0999 V2000
    3.5640   -4.2221   -0.9791 C   0  0  0  0  0  0  0  0  0  0  0  0
    4.1399   -3.4210    0.1852 C   0  0  2  0  0  0  0  0  0  0  0  0
    5.4150   -2.6776   -0.1668 C   0  0  0  0  0  0  0  0  0  0  0  0
    5.9001   -2.6556   -1.3125 O   0  0  0  0  0  0  0  0  0  0  0  0
    6.1149   -1.9504    0.9807 C   0  0  1  0  0  0  0  0  0  0  0  0
    7.5820   -1.6406    0.6210 C   0  0  0  0  0  0  0  0  0  0  0  0
    5.4564   -0.7066    1.1719 O   0  0  0  0  0  0  0  0  0  0  0  0
    5.6905   -0.2757    2.5493 O   0  0  0  0  0  0  0  0  0  0  0  0
    6.1305   -2.6993    2.2270 O   0  0  0  0  0  0  0  0  0  0  0  0
    5.2778   -3.7697    2.5402 C   0  0  2  0  0  0  0  0  0  0  0  0
    4.4915   -4.3652    1.3549 C   0  0  1  0  0  0  0  0  0  0  0  0
    3.4363   -4.7417    2.4391 C   0  0  2  0  0  0  0  0  0  0  0  0
    3.6372   -6.2737    2.8580 C   0  0  2  0  0  0  0  0  0  0  0  0
    4.8917   -6.5818    3.4286 O   0  0  0  0  0  0  0  0  0  0  0  0
    3.3961   -7.3242    1.7220 C   0  0  2  0  0  0  0  0  0  0  0  0
    3.0588   -8.7167    2.2909 C   0  0  0  0  0  0  0  0  0  0  0  0
    4.2471   -9.4644    2.1543 O   0  0  0  0  0  0  0  0  0  0  0  0
    5.1121   -8.9635    1.2870 C   0  0  0  0  0  0  0  0  0  0  0  0
    6.1942   -9.4301    0.9806 O   0  0  0  0  0  0  0  0  0  0  0  0
    4.5812   -7.6427    0.7646 C   0  0  0  0  0  0  0  0  0  0  0  0
    1.9235   -4.5450    2.3856 C   0  0  0  0  0  0  0  0  0  0  0  0
    1.4220   -4.7857    3.7175 O   0  0  0  0  0  0  0  0  0  0  0  0
    1.2281   -3.6793    4.6164 C   0  0  1  0  0  0  0  0  0  0  0  0
    0.9392   -4.0130    6.0724 C   0  0  2  0  0  0  0  0  0  0  0  0
    0.6398   -5.4651    6.3863 C   0  0  0  0  0  0  0  0  0  0  0  0
   -0.0348   -2.9530    6.5120 C   0  0  0  0  0  0  0  0  0  0  0  0
    1.2279   -2.1644    6.1227 C   0  0  1  0  0  0  0  0  0  0  0  0
    1.1388   -0.7972    6.5420 O   0  0  0  0  0  0  0  0  0  0  0  0
    0.6778    0.1261    5.5906 C   0  0  2  0  0  0  0  0  0  0  0  0
   -0.4388   -0.3507    4.8586 O   0  0  0  0  0  0  0  0  0  0  0  0
   -0.9886    0.5344    3.8663 C   0  0  1  0  0  0  0  0  0  0  0  0
   -1.7220    1.7236    4.5602 C   0  0  0  0  0  0  0  0  0  0  0  0
   -2.2994    2.6264    3.6309 O   0  0  0  0  0  0  0  0  0  0  0  0
    0.1277    0.9125    2.8469 C   0  0  1  0  0  0  0  0  0  0  0  0
   -0.3693    1.7546    1.8078 O   0  0  0  0  0  0  0  0  0  0  0  0
    1.3417    1.5371    3.5326 C   0  0  1  0  0  0  0  0  0  0  0  0
    0.9948    2.8416    4.0118 O   0  0  0  0  0  0  0  0  0  0  0  0
    1.8255    0.6045    4.6578 C   0  0  1  0  0  0  0  0  0  0  0  0
    2.8553    1.1980    5.4442 O   0  0  0  0  0  0  0  0  0  0  0  0
    1.9680   -3.1857    6.9581 C   0  0  2  0  0  0  0  0  0  0  0  0
    3.1053   -2.3240    6.3173 C   0  0  1  0  0  0  0  0  0  0  0  0
    4.4335   -2.6167    5.6587 C   0  0  0  0  0  0  0  0  0  0  0  0
    3.6465   -3.4747    4.7541 C   0  0  2  0  0  0  0  0  0  0  0  0
    3.7095   -4.7887    5.3018 O   0  0  0  0  0  0  0  0  0  0  0  0
    3.9590   -3.4619    3.2257 C   0  0  1  0  0  0  0  0  0  0  0  0
    3.5219   -2.1889    2.7308 O   0  0  0  0  0  0  0  0  0  0  0  0
    2.2716   -2.6135    4.9891 C   0  0  2  0  0  0  0  0  0  0  0  0
    3.2769   -3.5726   -1.8036 H   0  0  0  0  0  0  0  0  0  0  0  0
    2.6694   -4.7645   -0.6670 H   0  0  0  0  0  0  0  0  0  0  0  0
    4.2958   -4.9451   -1.3421 H   0  0  0  0  0  0  0  0  0  0  0  0
    3.3857   -2.6675    0.4406 H   0  0  0  0  0  0  0  0  0  0  0  0
    8.0853   -1.0141    1.3540 H   0  0  0  0  0  0  0  0  0  0  0  0
    7.6320   -1.0816   -0.3069 H   0  0  0  0  0  0  0  0  0  0  0  0
    8.1730   -2.5489    0.5062 H   0  0  0  0  0  0  0  0  0  0  0  0
    6.6080    0.0993    2.4230 H   0  0  0  0  0  0  0  0  0  0  0  0
    5.8442   -4.5013    3.1042 H   0  0  0  0  0  0  0  0  0  0  0  0
    5.1211   -5.1719    1.0363 H   0  0  0  0  0  0  0  0  0  0  0  0
    2.9267   -6.5208    3.6455 H   0  0  0  0  0  0  0  0  0  0  0  0
    4.8556   -7.4718    3.7500 H   0  0  0  0  0  0  0  0  0  0  0  0
    2.5291   -7.0059    1.1365 H   0  0  0  0  0  0  0  0  0  0  0  0
    2.7234   -8.7103    3.3288 H   0  0  0  0  0  0  0  0  0  0  0  0
    2.2911   -9.1994    1.6905 H   0  0  0  0  0  0  0  0  0  0  0  0
    4.2228   -7.7661   -0.2633 H   0  0  0  0  0  0  0  0  0  0  0  0
    5.4065   -6.9365    0.7599 H   0  0  0  0  0  0  0  0  0  0  0  0
    1.6383   -3.5570    2.0292 H   0  0  0  0  0  0  0  0  0  0  0  0
    1.4637   -5.2474    1.7012 H   0  0  0  0  0  0  0  0  0  0  0  0
    0.4092   -3.1460    4.1249 H   0  0  0  0  0  0  0  0  0  0  0  0
    0.4604   -5.5902    7.4543 H   0  0  0  0  0  0  0  0  0  0  0  0
    1.4949   -6.0853    6.1256 H   0  0  0  0  0  0  0  0  0  0  0  0
   -0.2339   -5.8258    5.8415 H   0  0  0  0  0  0  0  0  0  0  0  0
   -0.9033   -2.8013    5.8686 H   0  0  0  0  0  0  0  0  0  0  0  0
   -0.3128   -2.9450    7.5765 H   0  0  0  0  0  0  0  0  0  0  0  0
    0.3103    0.9336    6.2295 H   0  0  0  0  0  0  0  0  0  0  0  0
   -1.7142   -0.0557    3.3065 H   0  0  0  0  0  0  0  0  0  0  0  0
   -2.5304    1.3485    5.2072 H   0  0  0  0  0  0  0  0  0  0  0  0
   -1.0213    2.2872    5.1832 H   0  0  0  0  0  0  0  0  0  0  0  0
   -1.6528    2.7553    2.9036 H   0  0  0  0  0  0  0  0  0  0  0  0
    0.4594   -0.0217    2.3786 H   0  0  0  0  0  0  0  0  0  0  0  0
    0.3059    1.9216    1.1329 H   0  0  0  0  0  0  0  0  0  0  0  0
    2.1523    1.6115    2.7985 H   0  0  0  0  0  0  0  0  0  0  0  0
    0.6918    3.3693    3.2632 H   0  0  0  0  0  0  0  0  0  0  0  0
    2.2580   -0.2577    4.1513 H   0  0  0  0  0  0  0  0  0  0  0  0
    3.5441    1.5401    4.8578 H   0  0  0  0  0  0  0  0  0  0  0  0
    1.7953   -3.0816    8.0349 H   0  0  0  0  0  0  0  0  0  0  0  0
    3.2328   -1.3187    6.7298 H   0  0  0  0  0  0  0  0  0  0  0  0
    4.8595   -1.7403    5.1710 H   0  0  0  0  0  0  0  0  0  0  0  0
    5.1599   -3.1264    6.2922 H   0  0  0  0  0  0  0  0  0  0  0  0
    4.6235   -5.0095    5.3798 H   0  0  0  0  0  0  0  0  0  0  0  0
    4.2578   -1.6000    2.8309 H   0  0  0  0  0  0  0  0  0  0  0  0
  1  2  1  0
  1 48  1  0
  1 49  1  0
  1 50  1  0
  2 11  1  0
  2  3  1  0
  2 51  1  1
  3  4  2  0
  3  5  1  0
  5  6  1  0
  5  7  1  1
  5  9  1  0
  6 52  1  0
  6 53  1  0
  6 54  1  0
  7  8  1  0
  8 55  1  0
  9 10  1  0
 10 45  1  0
 10 11  1  0
 10 56  1  1
 11 12  1  0
 11 57  1  6
 12 45  1  0
 12 13  1  0
 12 21  1  6
 13 14  1  0
 13 15  1  0
 13 58  1  1
 14 59  1  0
 15 20  1  0
 15 16  1  0
 15 60  1  6
 16 17  1  0
 16 61  1  0
 16 62  1  0
 17 18  1  0
 18 19  2  0
 18 20  1  0
 20 63  1  0
 20 64  1  0
 21 22  1  0
 21 65  1  0
 21 66  1  0
 22 23  1  0
 23 47  1  0
 23 24  1  0
 23 67  1  6
 24 40  1  0
 24 25  1  6
 24 26  1  0
 25 68  1  0
 25 69  1  0
 25 70  1  0
 26 27  1  0
 26 71  1  0
 26 72  1  0
 27 47  1  0
 27 28  1  1
 27 40  1  0
 28 29  1  0
 29 38  1  0
 29 30  1  0
 29 73  1  1
 30 31  1  0
 31 32  1  0
 31 34  1  0
 31 74  1  6
 32 33  1  0
 32 75  1  0
 32 76  1  0
 33 77  1  0
 34 35  1  0
 34 36  1  0
 34 78  1  6
 35 79  1  0
 36 37  1  0
 36 38  1  0
 36 80  1  6
 37 81  1  0
 38 39  1  0
 38 82  1  6
 39 83  1  0
 40 41  1  0
 40 84  1  1
 41 47  1  0
 41 42  1  0
 41 85  1  1
 42 43  1  0
 42 86  1  0
 42 87  1  0
 43 44  1  1
 43 45  1  0
 47 43  1  6
 44 88  1  0
 45 46  1  6
 46 89  1  0
M  END
>  <i_m_ct_stereo_status>  (243) 
1

>  <s_m_source_file>  (243) 
/var/tmp/pbs.5083858.sched01/tmp0tb1bq5q/100hrbsavei.sdf

>  <i_m_source_file_index>  (243) 
3

>  <i_lp_mmshare_version>  (243) 
48012

>  <i_f3d_flags>  (243) 
0

>  <s_epik_input>  (243) 
Tz1DKFtDSDJdMSlPW0NIMl1bQ0BIXTFbQ0BASF0oW09IXSlbQ0BdMihbQ0gyXU8zKVtDQEBIXShbQ0BIXShbQ0gzXSlDKD1PKVtDQEBdKE80KShbQ0gzXSlPW09IXSlbQ0BASF00W0NAXTIoW09IXSlbQ0BAXTUoW09IXSlbQ0gyXVtDSF02W0NASF0oW0NAQF03KFtDQEhdM0M1NjgpW0NIM10pQzgoW0NIMl03KU9bQ0BASF05T1tDQEBIXShbQ0gyXVtPSF0pW0NAQEhdKFtPSF0pW0NAQEhdKFtPSF0pW0NASF05W09IXQ==

>  <s_epik_cmdline>  (243) 
J2VwaWtfcHl0aG9uJywgJy1waHQnLCAnMi4wJywgJy1waCcsICc3LjAnLCAnLXRuJywgJzgnLCAnLW1hJywgJzIwMCcsICctaW1hZScsICc8aW5maWxlLm1hZT4nLCAnLW9tYWUnLCAnPG91dGZpbGUubWFlPic=

>  <r_lp_tautomer_probability>  (243) 
1

>  <r_epik_Ionization_Penalty>  (243) 
0.000214566

>  <r_epik_Ionization_Penalty_Charging>  (243) 
0

>  <r_epik_Ionization_Penalty_Neutral>  (243) 
0.000214566

>  <r_epik_State_Penalty>  (243) 
-0

>  <r_epik_Charging_Adjusted_Penalty>  (243) 
0

>  <i_epik_Tot_Q>  (243) 
0

>  <i_epik_Tot_abs_Q>  (243) 
0

>  <s_epik_Chemistry_Notes>  (243) 
This compound has an ester and may undergo hydrolysis at high or low pH. This compound contains an acetal/aminal-like group ( X-CH(R)-Y where X, Y are N, S, or O) that may be acid/base labile, releasing an aldehyde.

>  <s_lp_Force_Field>  (243) 
OPLS3e

>  <r_lp_Energy>  (243) 
286.197

>  <b_lp_Chiralities_Consistent>  (243) 
1

>  <s_lp_Variant>  (243) 
72:0-1

>  <s_i_glide_gridfile>  (243) 
pfpi4k_grid

>  <i_i_glide_lignum>  (243) 
3

>  <i_i_glide_rotatable_bonds>  (243) 
14

>  <r_i_docking_score>  (243) 
-2.92565

>  <r_i_glide_ligand_efficiency>  (243) 
-0.0622478

>  <r_i_glide_ligand_efficiency_sa>  (243) 
-0.224642

>  <r_i_glide_ligand_efficiency_ln>  (243) 
-0.603208

>  <r_i_glide_gscore>  (243) 
-2.92565

>  <r_i_glide_lipo>  (243) 
-0.215503

>  <r_i_glide_hbond>  (243) 
0

>  <r_i_glide_metal>  (243) 
-0

>  <r_i_glide_rewards>  (243) 
-0.689039

>  <r_i_glide_evdw>  (243) 
-28.3367

>  <r_i_glide_ecoul>  (243) 
-4.62338

>  <r_i_glide_erotb>  (243) 
0.122626

>  <r_i_glide_esite>  (243) 
-0.0333899

>  <r_i_glide_emodel>  (243) 
-37.5661

>  <r_i_glide_energy>  (243) 
-32.9601

>  <r_i_glide_einternal>  (243) 
6.05919

>  <r_i_glide_intrahb_reward>  (243) 
-0.5

>  <i_i_glide_confnum>  (243) 
6

>  <i_i_glide_posenum>  (243) 
6

>  <r_i_glide_eff_state_penalty>  (243) 
0

>  <ligand_id>  (243) 
72

>  <original_smiles>  (243) 
CC1C(=O)C(C)(OO)OC2C1C1(C(O)C3COC(=O)C3)COC3C4(C)CC5(OC6OC(CO)C(O)C(O)C6O)C4C4CC(O)(C21O)C435

>  <smiles>  (243) 
[H]OOC1(C([H])([H])[H])OC2([H])C([H])(C([H])(C([H])([H])[H])C1=O)C1(C([H])(O[H])C3([H])C([H])([H])OC(=O)C3([H])[H])C([H])([H])OC3([H])C4(C([H])([H])[H])C([H])([H])C5(OC6([H])OC([H])(C([H])([H])O[H])C([H])(O[H])C([H])(O[H])C6([H])O[H])C4([H])C4([H])C([H])([H])C(O[H])(C21O[H])C345

$$$$
72:0:1
     RDKit          3D

 89 97  0  0  1  0  0  0  0  0999 V2000
    5.6350   -7.3421    3.3009 C   0  0  0  0  0  0  0  0  0  0  0  0
    5.6333   -6.4399    4.5494 C   0  0  2  0  0  0  0  0  0  0  0  0
    7.0250   -6.2236    5.1586 C   0  0  0  0  0  0  0  0  0  0  0  0
    8.0550   -6.6286    4.6316 O   0  0  0  0  0  0  0  0  0  0  0  0
    7.0877   -5.3917    6.4650 C   0  0  1  0  0  0  0  0  0  0  0  0
    8.4520   -5.6039    7.1826 C   0  0  0  0  0  0  0  0  0  0  0  0
    7.0007   -4.0142    6.0635 O   0  0  0  0  0  0  0  0  0  0  0  0
    6.9338   -3.1321    7.2498 O   0  0  0  0  0  0  0  0  0  0  0  0
    6.0659   -5.7187    7.4484 O   0  0  0  0  0  0  0  0  0  0  0  0
    4.8116   -6.3269    7.0686 C   0  0  2  0  0  0  0  0  0  0  0  0
    4.7416   -6.9960    5.6668 C   0  0  1  0  0  0  0  0  0  0  0  0
    3.2175   -6.6828    5.6946 C   0  0  2  0  0  0  0  0  0  0  0  0
    2.4032   -7.9915    6.1525 C   0  0  2  0  0  0  0  0  0  0  0  0
    2.9118   -8.5530    7.3383 O   0  0  0  0  0  0  0  0  0  0  0  0
    2.3928   -9.1857    5.1367 C   0  0  2  0  0  0  0  0  0  0  0  0
    1.7182   -8.8623    3.7996 C   0  0  0  0  0  0  0  0  0  0  0  0
    1.2159  -10.0994    3.3593 O   0  0  0  0  0  0  0  0  0  0  0  0
    1.0793  -11.0273    4.3196 C   0  0  0  0  0  0  0  0  0  0  0  0
    0.6593  -12.1483    4.1991 O   0  0  0  0  0  0  0  0  0  0  0  0
    1.6032  -10.4365    5.5901 C   0  0  0  0  0  0  0  0  0  0  0  0
    2.3664   -6.0307    4.5863 C   0  0  0  0  0  0  0  0  0  0  0  0
    1.1283   -5.7509    5.2916 O   0  0  0  0  0  0  0  0  0  0  0  0
    0.8585   -4.4142    5.7375 C   0  0  1  0  0  0  0  0  0  0  0  0
   -0.3637   -4.2174    6.5965 C   0  0  2  0  0  0  0  0  0  0  0  0
   -1.3549   -5.3647    6.6871 C   0  0  0  0  0  0  0  0  0  0  0  0
   -0.8685   -2.8466    6.2086 C   0  0  0  0  0  0  0  0  0  0  0  0
    0.5379   -2.5373    6.7759 C   0  0  1  0  0  0  0  0  0  0  0  0
    0.7567   -1.1283    6.9652 O   0  0  0  0  0  0  0  0  0  0  0  0
    0.8722   -0.3570    5.7929 C   0  0  2  0  0  0  0  0  0  0  0  0
    2.1735   -0.4352    5.2290 O   0  0  0  0  0  0  0  0  0  0  0  0
    2.3327    0.2453    3.9706 C   0  0  1  0  0  0  0  0  0  0  0  0
    1.5641   -0.4944    2.8289 C   0  0  0  0  0  0  0  0  0  0  0  0
    1.7881    0.1015    1.5422 O   0  0  0  0  0  0  0  0  0  0  0  0
    1.9916    1.7418    4.1735 C   0  0  1  0  0  0  0  0  0  0  0  0
    2.1659    2.5312    3.0104 O   0  0  0  0  0  0  0  0  0  0  0  0
    0.6052    1.9483    4.7520 C   0  0  1  0  0  0  0  0  0  0  0  0
   -0.3241    1.5795    3.7269 O   0  0  0  0  0  0  0  0  0  0  0  0
    0.4512    1.1178    6.0464 C   0  0  1  0  0  0  0  0  0  0  0  0
   -0.8770    1.1680    6.5661 O   0  0  0  0  0  0  0  0  0  0  0  0
    0.0995   -3.4379    7.9027 C   0  0  2  0  0  0  0  0  0  0  0  0
    1.6280   -3.1767    8.1815 C   0  0  1  0  0  0  0  0  0  0  0  0
    2.7969   -4.0168    8.6496 C   0  0  0  0  0  0  0  0  0  0  0  0
    2.4892   -4.8482    7.4935 C   0  0  2  0  0  0  0  0  0  0  0  0
    1.7058   -5.9152    7.9803 O   0  0  0  0  0  0  0  0  0  0  0  0
    3.6539   -5.4364    6.6132 C   0  0  1  0  0  0  0  0  0  0  0  0
    4.2225   -4.3169    5.9234 O   0  0  0  0  0  0  0  0  0  0  0  0
    1.7503   -3.6013    6.6751 C   0  0  2  0  0  0  0  0  0  0  0  0
    6.2173   -6.9014    2.4887 H   0  0  0  0  0  0  0  0  0  0  0  0
    4.6148   -7.4741    2.9217 H   0  0  0  0  0  0  0  0  0  0  0  0
    6.0344   -8.3438    3.4986 H   0  0  0  0  0  0  0  0  0  0  0  0
    5.2842   -5.4698    4.1777 H   0  0  0  0  0  0  0  0  0  0  0  0
    8.5787   -5.0081    8.0924 H   0  0  0  0  0  0  0  0  0  0  0  0
    9.2758   -5.3690    6.5146 H   0  0  0  0  0  0  0  0  0  0  0  0
    8.5271   -6.6507    7.4774 H   0  0  0  0  0  0  0  0  0  0  0  0
    7.8624   -3.0748    7.4472 H   0  0  0  0  0  0  0  0  0  0  0  0
    4.5108   -6.9800    7.8794 H   0  0  0  0  0  0  0  0  0  0  0  0
    4.9466   -8.0406    5.8042 H   0  0  0  0  0  0  0  0  0  0  0  0
    1.3443   -7.7902    6.3607 H   0  0  0  0  0  0  0  0  0  0  0  0
    2.3966   -9.3141    7.5712 H   0  0  0  0  0  0  0  0  0  0  0  0
    3.4329   -9.4950    4.9722 H   0  0  0  0  0  0  0  0  0  0  0  0
    0.8882   -8.1864    3.9507 H   0  0  0  0  0  0  0  0  0  0  0  0
    2.3969   -8.4117    3.0985 H   0  0  0  0  0  0  0  0  0  0  0  0
    2.2589  -11.1466    6.1011 H   0  0  0  0  0  0  0  0  0  0  0  0
    0.7913  -10.1653    6.2680 H   0  0  0  0  0  0  0  0  0  0  0  0
    2.7799   -5.0643    4.2321 H   0  0  0  0  0  0  0  0  0  0  0  0
    2.2014   -6.7020    3.7277 H   0  0  0  0  0  0  0  0  0  0  0  0
    0.8028   -3.8694    4.7909 H   0  0  0  0  0  0  0  0  0  0  0  0
   -2.2082   -5.0793    7.3197 H   0  0  0  0  0  0  0  0  0  0  0  0
   -0.8566   -6.2127    7.1498 H   0  0  0  0  0  0  0  0  0  0  0  0
   -1.7225   -5.6914    5.7172 H   0  0  0  0  0  0  0  0  0  0  0  0
   -1.0324   -2.6876    5.1378 H   0  0  0  0  0  0  0  0  0  0  0  0
   -1.7396   -2.4495    6.7814 H   0  0  0  0  0  0  0  0  0  0  0  0
    0.2002   -0.8143    5.0861 H   0  0  0  0  0  0  0  0  0  0  0  0
    3.3901    0.1996    3.7406 H   0  0  0  0  0  0  0  0  0  0  0  0
    1.9037   -1.5475    2.7626 H   0  0  0  0  0  0  0  0  0  0  0  0
    0.4805   -0.4599    3.0463 H   0  0  0  0  0  0  0  0  0  0  0  0
    1.2077   -0.3040    0.8601 H   0  0  0  0  0  0  0  0  0  0  0  0
    2.7019    2.1278    4.9111 H   0  0  0  0  0  0  0  0  0  0  0  0
    1.8778    2.0642    2.2112 H   0  0  0  0  0  0  0  0  0  0  0  0
    0.5218    3.0109    5.0122 H   0  0  0  0  0  0  0  0  0  0  0  0
   -0.2120    2.1836    2.9754 H   0  0  0  0  0  0  0  0  0  0  0  0
    1.1025    1.5550    6.8100 H   0  0  0  0  0  0  0  0  0  0  0  0
   -1.1795    2.0916    6.5804 H   0  0  0  0  0  0  0  0  0  0  0  0
   -0.6352   -2.9493    8.5526 H   0  0  0  0  0  0  0  0  0  0  0  0
    1.8788   -2.1616    8.5213 H   0  0  0  0  0  0  0  0  0  0  0  0
    3.7397   -3.4951    8.5713 H   0  0  0  0  0  0  0  0  0  0  0  0
    2.6566   -4.5059    9.6170 H   0  0  0  0  0  0  0  0  0  0  0  0
    1.3166   -6.2914    7.2068 H   0  0  0  0  0  0  0  0  0  0  0  0
    4.8120   -3.8890    6.5285 H   0  0  0  0  0  0  0  0  0  0  0  0
  1  2  1  0
  1 48  1  0
  1 49  1  0
  1 50  1  0
  2 11  1  0
  2  3  1  0
  2 51  1  6
  3  4  2  0
  3  5  1  0
  5  6  1  0
  5  7  1  6
  5  9  1  0
  6 52  1  0
  6 53  1  0
  6 54  1  0
  7  8  1  0
  8 55  1  0
  9 10  1  0
 10 45  1  0
 10 11  1  0
 10 56  1  1
 11 12  1  0
 11 57  1  1
 12 45  1  0
 12 13  1  0
 12 21  1  6
 13 14  1  0
 13 15  1  0
 13 58  1  1
 14 59  1  0
 15 20  1  0
 15 16  1  0
 15 60  1  6
 16 17  1  0
 16 61  1  0
 16 62  1  0
 17 18  1  0
 18 19  2  0
 18 20  1  0
 20 63  1  0
 20 64  1  0
 21 22  1  0
 21 65  1  0
 21 66  1  0
 22 23  1  0
 23 47  1  0
 23 24  1  0
 23 67  1  6
 24 40  1  0
 24 25  1  1
 24 26  1  0
 25 68  1  0
 25 69  1  0
 25 70  1  0
 26 27  1  0
 26 71  1  0
 26 72  1  0
 27 47  1  0
 27 28  1  1
 27 40  1  0
 28 29  1  0
 29 38  1  0
 29 30  1  0
 29 73  1  6
 30 31  1  0
 31 32  1  0
 31 34  1  0
 31 74  1  6
 32 33  1  0
 32 75  1  0
 32 76  1  0
 33 77  1  0
 34 35  1  0
 34 36  1  0
 34 78  1  1
 35 79  1  0
 36 37  1  0
 36 38  1  0
 36 80  1  1
 37 81  1  0
 38 39  1  0
 38 82  1  1
 39 83  1  0
 40 41  1  0
 40 84  1  1
 41 47  1  0
 41 42  1  0
 41 85  1  6
 42 43  1  0
 42 86  1  0
 42 87  1  0
 43 44  1  1
 43 45  1  0
 47 43  1  6
 44 88  1  0
 45 46  1  6
 46 89  1  0
M  END
>  <i_m_ct_stereo_status>  (244) 
1

>  <s_m_source_file>  (244) 
/var/tmp/pbs.5083858.sched01/tmp0tb1bq5q/100hrbsavei.sdf

>  <i_m_source_file_index>  (244) 
3

>  <i_lp_mmshare_version>  (244) 
48012

>  <i_f3d_flags>  (244) 
0

>  <s_epik_input>  (244) 
Tz1DKFtDSDJdMSlPW0NIMl1bQ0BIXTFbQ0BASF0oW09IXSlbQ0BdMihbQ0gyXU8zKVtDQEBIXShbQ0BIXShbQ0gzXSlDKD1PKVtDQEBdKE80KShbQ0gzXSlPW09IXSlbQ0BASF00W0NAXTIoW09IXSlbQ0BAXTUoW09IXSlbQ0gyXVtDSF02W0NASF0oW0NAQF03KFtDQEhdM0M1NjgpW0NIM10pQzgoW0NIMl03KU9bQ0BASF05T1tDQEBIXShbQ0gyXVtPSF0pW0NAQEhdKFtPSF0pW0NAQEhdKFtPSF0pW0NASF05W09IXQ==

>  <s_epik_cmdline>  (244) 
J2VwaWtfcHl0aG9uJywgJy1waHQnLCAnMi4wJywgJy1waCcsICc3LjAnLCAnLXRuJywgJzgnLCAnLW1hJywgJzIwMCcsICctaW1hZScsICc8aW5maWxlLm1hZT4nLCAnLW9tYWUnLCAnPG91dGZpbGUubWFlPic=

>  <r_lp_tautomer_probability>  (244) 
1

>  <r_epik_Ionization_Penalty>  (244) 
0.000214566

>  <r_epik_Ionization_Penalty_Charging>  (244) 
0

>  <r_epik_Ionization_Penalty_Neutral>  (244) 
0.000214566

>  <r_epik_State_Penalty>  (244) 
-0

>  <r_epik_Charging_Adjusted_Penalty>  (244) 
0

>  <i_epik_Tot_Q>  (244) 
0

>  <i_epik_Tot_abs_Q>  (244) 
0

>  <s_epik_Chemistry_Notes>  (244) 
This compound has an ester and may undergo hydrolysis at high or low pH. This compound contains an acetal/aminal-like group ( X-CH(R)-Y where X, Y are N, S, or O) that may be acid/base labile, releasing an aldehyde.

>  <s_lp_Force_Field>  (244) 
OPLS3e

>  <r_lp_Energy>  (244) 
286.197

>  <b_lp_Chiralities_Consistent>  (244) 
1

>  <s_lp_Variant>  (244) 
72:0-1

>  <s_i_glide_gridfile>  (244) 
pfpi4k_grid

>  <i_i_glide_lignum>  (244) 
3

>  <i_i_glide_rotatable_bonds>  (244) 
14

>  <r_i_docking_score>  (244) 
-2.35637

>  <r_i_glide_ligand_efficiency>  (244) 
-0.0501356

>  <r_i_glide_ligand_efficiency_sa>  (244) 
-0.180931

>  <r_i_glide_ligand_efficiency_ln>  (244) 
-0.485836

>  <r_i_glide_gscore>  (244) 
-2.35637

>  <r_i_glide_lipo>  (244) 
-0.0754655

>  <r_i_glide_hbond>  (244) 
0

>  <r_i_glide_metal>  (244) 
-0

>  <r_i_glide_rewards>  (244) 
-0.600033

>  <r_i_glide_evdw>  (244) 
-22.615

>  <r_i_glide_ecoul>  (244) 
-4.45805

>  <r_i_glide_erotb>  (244) 
0.122626

>  <r_i_glide_esite>  (244) 
-0.00404485

>  <r_i_glide_emodel>  (244) 
-33.4

>  <r_i_glide_energy>  (244) 
-27.0731

>  <r_i_glide_einternal>  (244) 
2.60381

>  <r_i_glide_intrahb_reward>  (244) 
-0.5

>  <i_i_glide_confnum>  (244) 
13

>  <i_i_glide_posenum>  (244) 
20

>  <r_i_glide_eff_state_penalty>  (244) 
0

>  <ligand_id>  (244) 
72

>  <original_smiles>  (244) 
CC1C(=O)C(C)(OO)OC2C1C1(C(O)C3COC(=O)C3)COC3C4(C)CC5(OC6OC(CO)C(O)C(O)C6O)C4C4CC(O)(C21O)C435

>  <smiles>  (244) 
[H]OOC1(C([H])([H])[H])OC2([H])C([H])(C([H])(C([H])([H])[H])C1=O)C1(C([H])(O[H])C3([H])C([H])([H])OC(=O)C3([H])[H])C([H])([H])OC3([H])C4(C([H])([H])[H])C([H])([H])C5(OC6([H])OC([H])(C([H])([H])O[H])C([H])(O[H])C([H])(O[H])C6([H])O[H])C4([H])C4([H])C([H])([H])C(O[H])(C21O[H])C345

$$$$
72:0:2
     RDKit          3D

 89 97  0  0  1  0  0  0  0  0999 V2000
    1.4997   -6.4105    1.3194 C   0  0  0  0  0  0  0  0  0  0  0  0
    2.6234   -5.5053    1.8515 C   0  0  2  0  0  0  0  0  0  0  0  0
    3.9584   -5.6459    1.0751 C   0  0  0  0  0  0  0  0  0  0  0  0
    4.0650   -6.3706    0.0964 O   0  0  0  0  0  0  0  0  0  0  0  0
    5.1471   -4.7981    1.6053 C   0  0  1  0  0  0  0  0  0  0  0  0
    6.4745   -5.3581    1.0104 C   0  0  0  0  0  0  0  0  0  0  0  0
    4.9454   -3.4750    1.1277 O   0  0  0  0  0  0  0  0  0  0  0  0
    5.9841   -2.5959    1.6596 O   0  0  0  0  0  0  0  0  0  0  0  0
    5.3100   -4.8015    3.0432 O   0  0  0  0  0  0  0  0  0  0  0  0
    4.2377   -5.1463    3.9372 C   0  0  2  0  0  0  0  0  0  0  0  0
    3.0066   -5.8317    3.2960 C   0  0  1  0  0  0  0  0  0  0  0  0
    2.1895   -5.2230    4.4871 C   0  0  2  0  0  0  0  0  0  0  0  0
    1.9552   -6.3363    5.6159 C   0  0  2  0  0  0  0  0  0  0  0  0
    3.1501   -6.9327    6.0507 O   0  0  0  0  0  0  0  0  0  0  0  0
    0.9376   -7.4800    5.2978 C   0  0  2  0  0  0  0  0  0  0  0  0
    0.5784   -8.2767    6.5640 C   0  0  0  0  0  0  0  0  0  0  0  0
    1.3230   -9.4589    6.4367 O   0  0  0  0  0  0  0  0  0  0  0  0
    1.7371   -9.7248    5.2226 C   0  0  0  0  0  0  0  0  0  0  0  0
    2.3974  -10.7047    4.8660 O   0  0  0  0  0  0  0  0  0  0  0  0
    1.3400   -8.5900    4.3063 C   0  0  0  0  0  0  0  0  0  0  0  0
    0.8664   -4.4408    4.4440 C   0  0  0  0  0  0  0  0  0  0  0  0
    0.7461   -3.8473    5.7597 O   0  0  0  0  0  0  0  0  0  0  0  0
    1.1312   -2.4878    5.9599 C   0  0  1  0  0  0  0  0  0  0  0  0
    1.1995   -1.9848    7.4037 C   0  0  2  0  0  0  0  0  0  0  0  0
    0.5242   -2.8675    8.4404 C   0  0  0  0  0  0  0  0  0  0  0  0
    0.7368   -0.5655    7.3270 C   0  0  0  0  0  0  0  0  0  0  0  0
    2.0022   -0.5870    6.4303 C   0  0  1  0  0  0  0  0  0  0  0  0
    2.4642    0.7180    6.0775 O   0  0  0  0  0  0  0  0  0  0  0  0
    1.7250    1.4129    5.0925 C   0  0  2  0  0  0  0  0  0  0  0  0
    0.3345    1.3895    5.3986 O   0  0  0  0  0  0  0  0  0  0  0  0
   -0.4942    2.0496    4.4603 C   0  0  1  0  0  0  0  0  0  0  0  0
   -0.4080    3.6044    4.6451 C   0  0  0  0  0  0  0  0  0  0  0  0
   -1.2813    4.3451    3.7714 O   0  0  0  0  0  0  0  0  0  0  0  0
   -0.2796    1.4243    3.0654 C   0  0  1  0  0  0  0  0  0  0  0  0
   -1.2154    1.9050    2.0835 O   0  0  0  0  0  0  0  0  0  0  0  0
    1.1629    1.5301    2.5869 C   0  0  1  0  0  0  0  0  0  0  0  0
    1.5645    2.9067    2.4513 O   0  0  0  0  0  0  0  0  0  0  0  0
    2.0356    0.8594    3.6603 C   0  0  1  0  0  0  0  0  0  0  0  0
    3.4117    1.1055    3.3719 O   0  0  0  0  0  0  0  0  0  0  0  0
    2.6267   -1.3253    7.6152 C   0  0  2  0  0  0  0  0  0  0  0  0
    3.7325   -1.4037    6.5220 C   0  0  1  0  0  0  0  0  0  0  0  0
    4.6584   -2.4968    6.0194 C   0  0  0  0  0  0  0  0  0  0  0  0
    3.4270   -3.2616    5.7544 C   0  0  2  0  0  0  0  0  0  0  0  0
    3.2559   -4.1078    6.8662 O   0  0  0  0  0  0  0  0  0  0  0  0
    3.2987   -4.0613    4.4408 C   0  0  1  0  0  0  0  0  0  0  0  0
    3.1525   -3.0976    3.3949 O   0  0  0  0  0  0  0  0  0  0  0  0
    2.5044   -1.9052    5.6104 C   0  0  2  0  0  0  0  0  0  0  0  0
    1.2200   -6.1492    0.2938 H   0  0  0  0  0  0  0  0  0  0  0  0
    0.6019   -6.3232    1.9282 H   0  0  0  0  0  0  0  0  0  0  0  0
    1.7752   -7.4618    1.3199 H   0  0  0  0  0  0  0  0  0  0  0  0
    2.2452   -4.4778    1.7158 H   0  0  0  0  0  0  0  0  0  0  0  0
    7.3643   -4.8064    1.3184 H   0  0  0  0  0  0  0  0  0  0  0  0
    6.4220   -5.3330   -0.0800 H   0  0  0  0  0  0  0  0  0  0  0  0
    6.6108   -6.3978    1.3177 H   0  0  0  0  0  0  0  0  0  0  0  0
    6.7046   -2.8084    1.0709 H   0  0  0  0  0  0  0  0  0  0  0  0
    4.6495   -5.7150    4.7706 H   0  0  0  0  0  0  0  0  0  0  0  0
    3.2783   -6.8806    3.4073 H   0  0  0  0  0  0  0  0  0  0  0  0
    1.5459   -5.8675    6.5044 H   0  0  0  0  0  0  0  0  0  0  0  0
    2.9342   -7.5560    6.7425 H   0  0  0  0  0  0  0  0  0  0  0  0
   -0.0033   -7.0454    4.9789 H   0  0  0  0  0  0  0  0  0  0  0  0
    0.7885   -7.7647    7.5061 H   0  0  0  0  0  0  0  0  0  0  0  0
   -0.4729   -8.5552    6.5634 H   0  0  0  0  0  0  0  0  0  0  0  0
    0.4661   -8.8757    3.7140 H   0  0  0  0  0  0  0  0  0  0  0  0
    2.1640   -8.3901    3.6311 H   0  0  0  0  0  0  0  0  0  0  0  0
    0.8047   -3.6798    3.6561 H   0  0  0  0  0  0  0  0  0  0  0  0
    0.0108   -5.0774    4.2685 H   0  0  0  0  0  0  0  0  0  0  0  0
    0.4129   -1.9521    5.3245 H   0  0  0  0  0  0  0  0  0  0  0  0
    0.6106   -2.3838    9.4201 H   0  0  0  0  0  0  0  0  0  0  0  0
    1.0248   -3.8291    8.4828 H   0  0  0  0  0  0  0  0  0  0  0  0
   -0.5339   -3.0150    8.2134 H   0  0  0  0  0  0  0  0  0  0  0  0
   -0.2157   -0.4206    6.8380 H   0  0  0  0  0  0  0  0  0  0  0  0
    0.8364    0.0501    8.2093 H   0  0  0  0  0  0  0  0  0  0  0  0
    2.1026    2.4183    5.2343 H   0  0  0  0  0  0  0  0  0  0  0  0
   -1.5165    1.7509    4.6780 H   0  0  0  0  0  0  0  0  0  0  0  0
   -0.7126    3.8574    5.6598 H   0  0  0  0  0  0  0  0  0  0  0  0
    0.6139    3.9558    4.4790 H   0  0  0  0  0  0  0  0  0  0  0  0
   -0.9907    4.3100    2.8479 H   0  0  0  0  0  0  0  0  0  0  0  0
   -0.4622    0.3546    3.1525 H   0  0  0  0  0  0  0  0  0  0  0  0
   -0.8338    2.7032    1.6816 H   0  0  0  0  0  0  0  0  0  0  0  0
    1.3207    0.9790    1.6461 H   0  0  0  0  0  0  0  0  0  0  0  0
    1.1245    3.3279    1.7011 H   0  0  0  0  0  0  0  0  0  0  0  0
    1.9090   -0.2124    3.6144 H   0  0  0  0  0  0  0  0  0  0  0  0
    3.5070    2.0555    3.1685 H   0  0  0  0  0  0  0  0  0  0  0  0
    2.7892   -0.6618    8.4631 H   0  0  0  0  0  0  0  0  0  0  0  0
    4.2623   -0.4909    6.3164 H   0  0  0  0  0  0  0  0  0  0  0  0
    5.2085   -2.2043    5.1169 H   0  0  0  0  0  0  0  0  0  0  0  0
    5.3231   -2.9290    6.7856 H   0  0  0  0  0  0  0  0  0  0  0  0
    2.3429   -4.3657    6.8101 H   0  0  0  0  0  0  0  0  0  0  0  0
    4.0167   -2.7319    3.2321 H   0  0  0  0  0  0  0  0  0  0  0  0
  1  2  1  0
  1 48  1  0
  1 49  1  0
  1 50  1  0
  2 11  1  0
  2  3  1  0
  2 51  1  1
  3  4  2  0
  3  5  1  0
  5  6  1  0
  5  7  1  6
  5  9  1  0
  6 52  1  0
  6 53  1  0
  6 54  1  0
  7  8  1  0
  8 55  1  0
  9 10  1  0
 10 45  1  0
 10 11  1  0
 10 56  1  1
 11 12  1  0
 11 57  1  6
 12 45  1  0
 12 13  1  0
 12 21  1  6
 13 14  1  0
 13 15  1  0
 13 58  1  1
 14 59  1  0
 15 20  1  0
 15 16  1  0
 15 60  1  6
 16 17  1  0
 16 61  1  0
 16 62  1  0
 17 18  1  0
 18 19  2  0
 18 20  1  0
 20 63  1  0
 20 64  1  0
 21 22  1  0
 21 65  1  0
 21 66  1  0
 22 23  1  0
 23 47  1  0
 23 24  1  0
 23 67  1  6
 24 40  1  0
 24 25  1  1
 24 26  1  0
 25 68  1  0
 25 69  1  0
 25 70  1  0
 26 27  1  0
 26 71  1  0
 26 72  1  0
 27 47  1  0
 27 28  1  6
 27 40  1  0
 28 29  1  0
 29 38  1  0
 29 30  1  0
 29 73  1  6
 30 31  1  0
 31 32  1  0
 31 34  1  0
 31 74  1  1
 32 33  1  0
 32 75  1  0
 32 76  1  0
 33 77  1  0
 34 35  1  0
 34 36  1  0
 34 78  1  1
 35 79  1  0
 36 37  1  0
 36 38  1  0
 36 80  1  6
 37 81  1  0
 38 39  1  0
 38 82  1  1
 39 83  1  0
 40 41  1  0
 40 84  1  1
 41 47  1  0
 41 42  1  0
 41 85  1  6
 42 43  1  0
 42 86  1  0
 42 87  1  0
 43 44  1  1
 43 45  1  0
 47 43  1  6
 44 88  1  0
 45 46  1  6
 46 89  1  0
M  END
>  <i_m_ct_stereo_status>  (245) 
1

>  <s_m_source_file>  (245) 
/var/tmp/pbs.5083858.sched01/tmp0tb1bq5q/100hrbsavei.sdf

>  <i_m_source_file_index>  (245) 
3

>  <i_lp_mmshare_version>  (245) 
48012

>  <i_f3d_flags>  (245) 
0

>  <s_epik_input>  (245) 
Tz1DKFtDSDJdMSlPW0NIMl1bQ0BIXTFbQ0BASF0oW09IXSlbQ0BdMihbQ0gyXU8zKVtDQEBIXShbQ0BIXShbQ0gzXSlDKD1PKVtDQEBdKE80KShbQ0gzXSlPW09IXSlbQ0BASF00W0NAXTIoW09IXSlbQ0BAXTUoW09IXSlbQ0gyXVtDSF02W0NASF0oW0NAQF03KFtDQEhdM0M1NjgpW0NIM10pQzgoW0NIMl03KU9bQ0BASF05T1tDQEBIXShbQ0gyXVtPSF0pW0NAQEhdKFtPSF0pW0NAQEhdKFtPSF0pW0NASF05W09IXQ==

>  <s_epik_cmdline>  (245) 
J2VwaWtfcHl0aG9uJywgJy1waHQnLCAnMi4wJywgJy1waCcsICc3LjAnLCAnLXRuJywgJzgnLCAnLW1hJywgJzIwMCcsICctaW1hZScsICc8aW5maWxlLm1hZT4nLCAnLW9tYWUnLCAnPG91dGZpbGUubWFlPic=

>  <r_lp_tautomer_probability>  (245) 
1

>  <r_epik_Ionization_Penalty>  (245) 
0.000214566

>  <r_epik_Ionization_Penalty_Charging>  (245) 
0

>  <r_epik_Ionization_Penalty_Neutral>  (245) 
0.000214566

>  <r_epik_State_Penalty>  (245) 
-0

>  <r_epik_Charging_Adjusted_Penalty>  (245) 
0

>  <i_epik_Tot_Q>  (245) 
0

>  <i_epik_Tot_abs_Q>  (245) 
0

>  <s_epik_Chemistry_Notes>  (245) 
This compound has an ester and may undergo hydrolysis at high or low pH. This compound contains an acetal/aminal-like group ( X-CH(R)-Y where X, Y are N, S, or O) that may be acid/base labile, releasing an aldehyde.

>  <s_lp_Force_Field>  (245) 
OPLS3e

>  <r_lp_Energy>  (245) 
286.197

>  <b_lp_Chiralities_Consistent>  (245) 
1

>  <s_lp_Variant>  (245) 
72:0-1

>  <s_i_glide_gridfile>  (245) 
pfpi4k_grid

>  <i_i_glide_lignum>  (245) 
3

>  <i_i_glide_rotatable_bonds>  (245) 
14

>  <r_i_docking_score>  (245) 
-2.33498

>  <r_i_glide_ligand_efficiency>  (245) 
-0.0496805

>  <r_i_glide_ligand_efficiency_sa>  (245) 
-0.179288

>  <r_i_glide_ligand_efficiency_ln>  (245) 
-0.481425

>  <r_i_glide_gscore>  (245) 
-2.33498

>  <r_i_glide_lipo>  (245) 
-0.1068

>  <r_i_glide_hbond>  (245) 
0

>  <r_i_glide_metal>  (245) 
-0

>  <r_i_glide_rewards>  (245) 
-0.101498

>  <r_i_glide_evdw>  (245) 
-24.593

>  <r_i_glide_ecoul>  (245) 
-6.53191

>  <r_i_glide_erotb>  (245) 
0.122626

>  <r_i_glide_esite>  (245) 
-0.0398744

>  <r_i_glide_emodel>  (245) 
-30.8628

>  <r_i_glide_energy>  (245) 
-31.1249

>  <r_i_glide_einternal>  (245) 
7.15068

>  <r_i_glide_intrahb_reward>  (245) 
-0

>  <i_i_glide_confnum>  (245) 
10

>  <i_i_glide_posenum>  (245) 
26

>  <r_i_glide_eff_state_penalty>  (245) 
0

>  <ligand_id>  (245) 
72

>  <original_smiles>  (245) 
CC1C(=O)C(C)(OO)OC2C1C1(C(O)C3COC(=O)C3)COC3C4(C)CC5(OC6OC(CO)C(O)C(O)C6O)C4C4CC(O)(C21O)C435

>  <smiles>  (245) 
[H]OOC1(C([H])([H])[H])OC2([H])C([H])(C([H])(C([H])([H])[H])C1=O)C1(C([H])(O[H])C3([H])C([H])([H])OC(=O)C3([H])[H])C([H])([H])OC3([H])C4(C([H])([H])[H])C([H])([H])C5(OC6([H])OC([H])(C([H])([H])O[H])C([H])(O[H])C([H])(O[H])C6([H])O[H])C4([H])C4([H])C([H])([H])C(O[H])(C21O[H])C345

$$$$
72:1:0
     RDKit          3D

 89 97  0  0  1  0  0  0  0  0999 V2000
   -1.1243    1.7449    8.0237 C   0  0  0  0  0  0  0  0  0  0  0  0
   -0.6308    2.0815    6.5921 C   0  0  2  0  0  0  0  0  0  0  0  0
   -1.5311    3.1084    5.9000 C   0  0  0  0  0  0  0  0  0  0  0  0
   -2.2911    3.7779    6.5605 O   0  0  0  0  0  0  0  0  0  0  0  0
   -1.5163    3.1893    4.3471 C   0  0  1  0  0  0  0  0  0  0  0  0
   -2.8166    2.5637    3.8182 C   0  0  0  0  0  0  0  0  0  0  0  0
   -1.5796    4.5482    3.9322 O   0  0  0  0  0  0  0  0  0  0  0  0
   -0.2234    5.0317    3.6762 O   0  0  0  0  0  0  0  0  0  0  0  0
   -0.4079    2.4957    3.7724 O   0  0  0  0  0  0  0  0  0  0  0  0
   -0.2099    1.1523    4.1919 C   0  0  2  0  0  0  0  0  0  0  0  0
   -0.5176    0.8618    5.6780 C   0  0  1  0  0  0  0  0  0  0  0  0
    0.7622   -0.0295    5.6893 C   0  0  2  0  0  0  0  0  0  0  0  0
    0.4834   -1.5861    5.4546 C   0  0  2  0  0  0  0  0  0  0  0  0
   -0.6015   -1.7244    4.5585 O   0  0  0  0  0  0  0  0  0  0  0  0
    0.1417   -2.4804    6.7011 C   0  0  2  0  0  0  0  0  0  0  0  0
    1.3771   -2.9964    7.4915 C   0  0  0  0  0  0  0  0  0  0  0  0
    1.6107   -4.3369    7.0869 O   0  0  0  0  0  0  0  0  0  0  0  0
    0.6036   -4.8621    6.4391 C   0  0  0  0  0  0  0  0  0  0  0  0
    0.5560   -5.9986    5.9593 O   0  0  0  0  0  0  0  0  0  0  0  0
   -0.5106   -3.8460    6.3658 C   0  0  0  0  0  0  0  0  0  0  0  0
    1.7162    0.0796    6.8972 C   0  0  0  0  0  0  0  0  0  0  0  0
    2.9299   -0.6348    6.7080 O   0  0  0  0  0  0  0  0  0  0  0  0
    3.8053   -0.1500    5.7097 C   0  0  1  0  0  0  0  0  0  0  0  0
    5.0508   -1.0092    5.4561 C   0  0  1  0  0  0  0  0  0  0  0  0
    6.1820   -0.7977    6.4444 C   0  0  0  0  0  0  0  0  0  0  0  0
    4.7213   -2.4505    4.9805 C   0  0  0  0  0  0  0  0  0  0  0  0
    4.0962   -1.6509    3.8631 C   0  0  2  0  0  0  0  0  0  0  0  0
    3.7835   -2.2532    2.5939 O   0  0  0  0  0  0  0  0  0  0  0  0
    4.7754   -2.6390    1.6540 C   0  0  2  0  0  0  0  0  0  0  0  0
    4.2827   -2.6170    0.3230 O   0  0  0  0  0  0  0  0  0  0  0  0
    3.1993   -3.5220    0.0642 C   0  0  1  0  0  0  0  0  0  0  0  0
    2.6748   -3.2776   -1.3670 C   0  0  0  0  0  0  0  0  0  0  0  0
    1.4037   -3.8888   -1.5260 O   0  0  0  0  0  0  0  0  0  0  0  0
    3.7025   -4.9735    0.2775 C   0  0  1  0  0  0  0  0  0  0  0  0
    4.6489   -5.3309   -0.7208 O   0  0  0  0  0  0  0  0  0  0  0  0
    4.3199   -5.1365    1.6741 C   0  0  1  0  0  0  0  0  0  0  0  0
    4.8289   -6.4595    1.8908 O   0  0  0  0  0  0  0  0  0  0  0  0
    5.3741   -4.0375    1.9512 C   0  0  1  0  0  0  0  0  0  0  0  0
    6.5103   -4.1645    1.1062 O   0  0  0  0  0  0  0  0  0  0  0  0
    5.2642   -0.7052    3.9406 C   0  0  1  0  0  0  0  0  0  0  0  0
    4.3811    0.4881    3.4695 C   0  0  2  0  0  0  0  0  0  0  0  0
    3.1937    0.7649    2.5228 C   0  0  0  0  0  0  0  0  0  0  0  0
    2.1527    0.1294    3.4788 C   0  0  2  0  0  0  0  0  0  0  0  0
    1.3964   -0.8061    2.7285 O   0  0  0  0  0  0  0  0  0  0  0  0
    1.2634    0.8861    4.4874 C   0  0  1  0  0  0  0  0  0  0  0  0
    1.8981    2.0836    4.9100 O   0  0  0  0  0  0  0  0  0  0  0  0
    3.3881   -0.3777    4.2569 C   0  0  2  0  0  0  0  0  0  0  0  0
   -1.0595    2.6232    8.6621 H   0  0  0  0  0  0  0  0  0  0  0  0
   -0.5075    0.9755    8.4890 H   0  0  0  0  0  0  0  0  0  0  0  0
   -2.1615    1.4051    8.0472 H   0  0  0  0  0  0  0  0  0  0  0  0
    0.3344    2.5773    6.6986 H   0  0  0  0  0  0  0  0  0  0  0  0
   -2.8952    2.6191    2.7285 H   0  0  0  0  0  0  0  0  0  0  0  0
   -3.7103    3.0195    4.2437 H   0  0  0  0  0  0  0  0  0  0  0  0
   -2.8407    1.5171    4.1007 H   0  0  0  0  0  0  0  0  0  0  0  0
   -0.0772    4.7128    2.7871 H   0  0  0  0  0  0  0  0  0  0  0  0
   -0.6849    0.4610    3.4980 H   0  0  0  0  0  0  0  0  0  0  0  0
   -1.4345    0.2736    5.7389 H   0  0  0  0  0  0  0  0  0  0  0  0
    1.3321   -2.0583    4.9529 H   0  0  0  0  0  0  0  0  0  0  0  0
   -0.2981   -1.4415    3.6951 H   0  0  0  0  0  0  0  0  0  0  0  0
   -0.5471   -1.9084    7.3351 H   0  0  0  0  0  0  0  0  0  0  0  0
    2.3219   -2.5653    7.2751 H   0  0  0  0  0  0  0  0  0  0  0  0
    1.1901   -2.9755    8.5694 H   0  0  0  0  0  0  0  0  0  0  0  0
   -1.2515   -4.1189    7.1168 H   0  0  0  0  0  0  0  0  0  0  0  0
   -0.9149   -3.9066    5.3704 H   0  0  0  0  0  0  0  0  0  0  0  0
    1.9183    1.1190    7.1778 H   0  0  0  0  0  0  0  0  0  0  0  0
    1.2282   -0.3314    7.7836 H   0  0  0  0  0  0  0  0  0  0  0  0
    4.0848    0.8948    5.9368 H   0  0  0  0  0  0  0  0  0  0  0  0
    7.0529   -1.3628    6.1385 H   0  0  0  0  0  0  0  0  0  0  0  0
    5.9111   -1.1336    7.4502 H   0  0  0  0  0  0  0  0  0  0  0  0
    6.4636    0.2530    6.4773 H   0  0  0  0  0  0  0  0  0  0  0  0
    5.5869   -3.0724    4.7650 H   0  0  0  0  0  0  0  0  0  0  0  0
    3.9862   -2.9739    5.5966 H   0  0  0  0  0  0  0  0  0  0  0  0
    5.5504   -1.8645    1.6305 H   0  0  0  0  0  0  0  0  0  0  0  0
    2.3929   -3.2882    0.7659 H   0  0  0  0  0  0  0  0  0  0  0  0
    2.5921   -2.2129   -1.5922 H   0  0  0  0  0  0  0  0  0  0  0  0
    3.3539   -3.6673   -2.1306 H   0  0  0  0  0  0  0  0  0  0  0  0
    1.1877   -3.9767   -2.4693 H   0  0  0  0  0  0  0  0  0  0  0  0
    2.8524   -5.6460    0.1739 H   0  0  0  0  0  0  0  0  0  0  0  0
    4.1660   -5.4743   -1.5497 H   0  0  0  0  0  0  0  0  0  0  0  0
    3.5104   -4.9897    2.3849 H   0  0  0  0  0  0  0  0  0  0  0  0
    4.1420   -7.1129    1.6882 H   0  0  0  0  0  0  0  0  0  0  0  0
    5.7112   -4.1264    2.9812 H   0  0  0  0  0  0  0  0  0  0  0  0
    6.1751   -4.3545    0.2135 H   0  0  0  0  0  0  0  0  0  0  0  0
    6.2011   -0.9825    3.4571 H   0  0  0  0  0  0  0  0  0  0  0  0
    4.6369    1.3976    3.9862 H   0  0  0  0  0  0  0  0  0  0  0  0
    3.0444    1.8389    2.3757 H   0  0  0  0  0  0  0  0  0  0  0  0
    3.3228    0.2609    1.5559 H   0  0  0  0  0  0  0  0  0  0  0  0
    1.2557   -0.4234    1.8687 H   0  0  0  0  0  0  0  0  0  0  0  0
    1.8937    2.6650    4.1653 H   0  0  0  0  0  0  0  0  0  0  0  0
  1  2  1  0
  1 48  1  0
  1 49  1  0
  1 50  1  0
  2 11  1  0
  2  3  1  0
  2 51  1  1
  3  4  2  0
  3  5  1  0
  5  6  1  0
  5  7  1  1
  5  9  1  0
  6 52  1  0
  6 53  1  0
  6 54  1  0
  7  8  1  0
  8 55  1  0
  9 10  1  0
 10 45  1  0
 10 11  1  0
 10 56  1  6
 11 12  1  0
 11 57  1  6
 12 45  1  0
 12 13  1  0
 12 21  1  1
 13 14  1  0
 13 15  1  0
 13 58  1  6
 14 59  1  0
 15 20  1  0
 15 16  1  0
 15 60  1  1
 16 17  1  0
 16 61  1  0
 16 62  1  0
 17 18  1  0
 18 19  2  0
 18 20  1  0
 20 63  1  0
 20 64  1  0
 21 22  1  0
 21 65  1  0
 21 66  1  0
 22 23  1  0
 23 47  1  0
 23 24  1  0
 23 67  1  1
 24 40  1  0
 24 25  1  1
 24 26  1  0
 25 68  1  0
 25 69  1  0
 25 70  1  0
 26 27  1  0
 26 71  1  0
 26 72  1  0
 27 47  1  0
 27 28  1  6
 27 40  1  0
 28 29  1  0
 29 38  1  0
 29 30  1  0
 29 73  1  6
 30 31  1  0
 31 32  1  0
 31 34  1  0
 31 74  1  1
 32 33  1  0
 32 75  1  0
 32 76  1  0
 33 77  1  0
 34 35  1  0
 34 36  1  0
 34 78  1  1
 35 79  1  0
 36 37  1  0
 36 38  1  0
 36 80  1  1
 37 81  1  0
 38 39  1  0
 38 82  1  1
 39 83  1  0
 40 41  1  0
 40 84  1  6
 41 47  1  0
 41 42  1  0
 41 85  1  1
 42 43  1  0
 42 86  1  0
 42 87  1  0
 43 44  1  6
 43 45  1  0
 47 43  1  1
 44 88  1  0
 45 46  1  1
 46 89  1  0
M  END
>  <i_m_ct_stereo_status>  (246) 
1

>  <s_m_source_file>  (246) 
/var/tmp/pbs.5083858.sched01/tmp0tb1bq5q/100hrbsavei.sdf

>  <i_m_source_file_index>  (246) 
4

>  <i_lp_mmshare_version>  (246) 
48012

>  <i_f3d_flags>  (246) 
2

>  <s_epik_input>  (246) 
Tz1DKFtDSDJdMSlPW0NIMl1bQ0BIXTFbQ0BASF0oW09IXSlbQ0BdMihbQ0gyXU8zKVtDQEBIXShbQ0BIXShbQ0gzXSlDKD1PKVtDQEBdKE80KShbQ0gzXSlPW09IXSlbQ0BASF00W0NAXTIoW09IXSlbQ0BAXTUoW09IXSlbQ0gyXVtDSF02W0NASF0oW0NAQF03KFtDQEhdM0M1NjgpW0NIM10pQzgoW0NIMl03KU9bQ0BASF05T1tDQEBIXShbQ0gyXVtPSF0pW0NAQEhdKFtPSF0pW0NAQEhdKFtPSF0pW0NASF05W09IXQ==

>  <s_epik_cmdline>  (246) 
J2VwaWtfcHl0aG9uJywgJy1waHQnLCAnMi4wJywgJy1waCcsICc3LjAnLCAnLXRuJywgJzgnLCAnLW1hJywgJzIwMCcsICctaW1hZScsICc8aW5maWxlLm1hZT4nLCAnLW9tYWUnLCAnPG91dGZpbGUubWFlPic=

>  <r_lp_tautomer_probability>  (246) 
1

>  <r_epik_Ionization_Penalty>  (246) 
0.000214566

>  <r_epik_Ionization_Penalty_Charging>  (246) 
0

>  <r_epik_Ionization_Penalty_Neutral>  (246) 
0.000214566

>  <r_epik_State_Penalty>  (246) 
-0

>  <r_epik_Charging_Adjusted_Penalty>  (246) 
0

>  <i_epik_Tot_Q>  (246) 
0

>  <i_epik_Tot_abs_Q>  (246) 
0

>  <s_epik_Chemistry_Notes>  (246) 
This compound has an ester and may undergo hydrolysis at high or low pH. This compound contains an acetal/aminal-like group ( X-CH(R)-Y where X, Y are N, S, or O) that may be acid/base labile, releasing an aldehyde.

>  <s_lp_Force_Field>  (246) 
OPLS3e

>  <r_lp_Energy>  (246) 
144.042

>  <b_lp_Chiralities_Consistent>  (246) 
0

>  <s_lp_Variant>  (246) 
72:0-2

>  <s_i_glide_gridfile>  (246) 
pfpi4k_grid

>  <i_i_glide_lignum>  (246) 
4

>  <i_i_glide_rotatable_bonds>  (246) 
14

>  <r_i_docking_score>  (246) 
-5.16402

>  <r_i_glide_ligand_efficiency>  (246) 
-0.109873

>  <r_i_glide_ligand_efficiency_sa>  (246) 
-0.396512

>  <r_i_glide_ligand_efficiency_ln>  (246) 
-1.06471

>  <r_i_glide_gscore>  (246) 
-5.16402

>  <r_i_glide_lipo>  (246) 
-0.374759

>  <r_i_glide_hbond>  (246) 
-0.404931

>  <r_i_glide_metal>  (246) 
-0

>  <r_i_glide_rewards>  (246) 
-1.06641

>  <r_i_glide_evdw>  (246) 
-27.1559

>  <r_i_glide_ecoul>  (246) 
-13.6413

>  <r_i_glide_erotb>  (246) 
0.122626

>  <r_i_glide_esite>  (246) 
-0.036563

>  <r_i_glide_emodel>  (246) 
-59.0796

>  <r_i_glide_energy>  (246) 
-40.7972

>  <r_i_glide_einternal>  (246) 
10.9501

>  <r_i_glide_intrahb_reward>  (246) 
-1

>  <i_i_glide_confnum>  (246) 
33

>  <i_i_glide_posenum>  (246) 
31

>  <r_i_glide_eff_state_penalty>  (246) 
0

>  <ligand_id>  (246) 
72

>  <original_smiles>  (246) 
CC1C(=O)C(C)(OO)OC2C1C1(C(O)C3COC(=O)C3)COC3C4(C)CC5(OC6OC(CO)C(O)C(O)C6O)C4C4CC(O)(C21O)C435

>  <smiles>  (246) 
[H]OOC1(C([H])([H])[H])OC2([H])C([H])(C([H])(C([H])([H])[H])C1=O)C1(C([H])(O[H])C3([H])C([H])([H])OC(=O)C3([H])[H])C([H])([H])OC3([H])C4(C([H])([H])[H])C([H])([H])C5(OC6([H])OC([H])(C([H])([H])O[H])C([H])(O[H])C([H])(O[H])C6([H])O[H])C4([H])C4([H])C([H])([H])C(O[H])(C21O[H])C345

$$$$
72:1:1
     RDKit          3D

 89 97  0  0  1  0  0  0  0  0999 V2000
   -1.0094    1.7340    8.2695 C   0  0  0  0  0  0  0  0  0  0  0  0
   -0.5362    2.1709    6.8617 C   0  0  2  0  0  0  0  0  0  0  0  0
   -1.4333    3.2630    6.2307 C   0  0  0  0  0  0  0  0  0  0  0  0
   -2.1378    3.9530    6.9478 O   0  0  0  0  0  0  0  0  0  0  0  0
   -1.4370    3.4111    4.6838 C   0  0  1  0  0  0  0  0  0  0  0  0
   -2.7436    2.7734    4.1389 C   0  0  0  0  0  0  0  0  0  0  0  0
   -1.4068    4.8035    4.3768 O   0  0  0  0  0  0  0  0  0  0  0  0
   -1.6378    4.9713    2.9400 O   0  0  0  0  0  0  0  0  0  0  0  0
   -0.3035    2.7783    4.0988 O   0  0  0  0  0  0  0  0  0  0  0  0
   -0.1074    1.4031    4.4114 C   0  0  2  0  0  0  0  0  0  0  0  0
   -0.4216    1.0119    5.8704 C   0  0  1  0  0  0  0  0  0  0  0  0
    0.8528    0.1064    5.8168 C   0  0  2  0  0  0  0  0  0  0  0  0
    0.5560   -1.4305    5.4787 C   0  0  2  0  0  0  0  0  0  0  0  0
   -0.5123   -1.4996    4.5505 O   0  0  0  0  0  0  0  0  0  0  0  0
    0.1898   -2.4012    6.6576 C   0  0  2  0  0  0  0  0  0  0  0  0
    1.4121   -3.0115    7.4062 C   0  0  0  0  0  0  0  0  0  0  0  0
    1.6082   -4.3189    6.9077 O   0  0  0  0  0  0  0  0  0  0  0  0
    0.5730   -4.7693    6.2459 C   0  0  0  0  0  0  0  0  0  0  0  0
    0.4733   -5.8688    5.7034 O   0  0  0  0  0  0  0  0  0  0  0  0
   -0.5070   -3.7103    6.2488 C   0  0  0  0  0  0  0  0  0  0  0  0
    1.8043    0.1107    7.0275 C   0  0  0  0  0  0  0  0  0  0  0  0
    3.0154   -0.6137    6.7784 O   0  0  0  0  0  0  0  0  0  0  0  0
    3.8876   -0.0433    5.8122 C   0  0  1  0  0  0  0  0  0  0  0  0
    5.1376   -0.8906    5.4985 C   0  0  1  0  0  0  0  0  0  0  0  0
    6.2737   -0.7435    6.4966 C   0  0  0  0  0  0  0  0  0  0  0  0
    4.7948   -2.2902    4.9610 C   0  0  0  0  0  0  0  0  0  0  0  0
    4.1716   -1.4284    3.8704 C   0  0  2  0  0  0  0  0  0  0  0  0
    3.8648   -1.9417    2.5723 O   0  0  0  0  0  0  0  0  0  0  0  0
    4.8286   -2.5776    1.7437 C   0  0  2  0  0  0  0  0  0  0  0  0
    4.3981   -2.6253    0.3744 O   0  0  0  0  0  0  0  0  0  0  0  0
    3.2076   -3.3963    0.1449 C   0  0  1  0  0  0  0  0  0  0  0  0
    2.7747   -3.2726   -1.3342 C   0  0  0  0  0  0  0  0  0  0  0  0
    1.4979   -3.8759   -1.5248 O   0  0  0  0  0  0  0  0  0  0  0  0
    3.4651   -4.8797    0.5462 C   0  0  1  0  0  0  0  0  0  0  0  0
    4.3966   -5.5117   -0.3251 O   0  0  0  0  0  0  0  0  0  0  0  0
    3.9731   -4.9574    1.9923 C   0  0  1  0  0  0  0  0  0  0  0  0
    4.2620   -6.3021    2.3903 O   0  0  0  0  0  0  0  0  0  0  0  0
    5.1817   -4.0214    2.1907 C   0  0  1  0  0  0  0  0  0  0  0  0
    6.3181   -4.4112    1.4259 O   0  0  0  0  0  0  0  0  0  0  0  0
    5.3448   -0.4950    4.0115 C   0  0  1  0  0  0  0  0  0  0  0  0
    4.4595    0.7353    3.6233 C   0  0  2  0  0  0  0  0  0  0  0  0
    3.2786    1.0713    2.7052 C   0  0  0  0  0  0  0  0  0  0  0  0
    2.2330    0.3895    3.6173 C   0  0  2  0  0  0  0  0  0  0  0  0
    1.4721   -0.4923    2.8144 O   0  0  0  0  0  0  0  0  0  0  0  0
    1.3629    1.0888    4.6781 C   0  0  1  0  0  0  0  0  0  0  0  0
    2.0205    2.2497    5.1745 O   0  0  0  0  0  0  0  0  0  0  0  0
    3.4675   -0.1793    4.3577 C   0  0  2  0  0  0  0  0  0  0  0  0
   -0.9308    2.5635    8.9726 H   0  0  0  0  0  0  0  0  0  0  0  0
   -0.3906    0.9309    8.6752 H   0  0  0  0  0  0  0  0  0  0  0  0
   -2.0452    1.3930    8.2833 H   0  0  0  0  0  0  0  0  0  0  0  0
    0.4355    2.6408    6.9973 H   0  0  0  0  0  0  0  0  0  0  0  0
   -2.8684    2.8472    3.0597 H   0  0  0  0  0  0  0  0  0  0  0  0
   -3.6203    3.2163    4.6079 H   0  0  0  0  0  0  0  0  0  0  0  0
   -2.7548    1.7100    4.3517 H   0  0  0  0  0  0  0  0  0  0  0  0
   -0.7929    4.7162    2.5661 H   0  0  0  0  0  0  0  0  0  0  0  0
   -0.5953    0.7796    3.6641 H   0  0  0  0  0  0  0  0  0  0  0  0
   -1.3349    0.4162    5.8928 H   0  0  0  0  0  0  0  0  0  0  0  0
    1.4071   -1.8805    4.9628 H   0  0  0  0  0  0  0  0  0  0  0  0
   -0.1816   -1.1762    3.7180 H   0  0  0  0  0  0  0  0  0  0  0  0
   -0.4594   -1.8531    7.3439 H   0  0  0  0  0  0  0  0  0  0  0  0
    2.3748   -2.5521    7.2157 H   0  0  0  0  0  0  0  0  0  0  0  0
    1.2424   -3.0481    8.4841 H   0  0  0  0  0  0  0  0  0  0  0  0
   -1.2610   -4.0052    6.9747 H   0  0  0  0  0  0  0  0  0  0  0  0
   -0.9376   -3.6863    5.2615 H   0  0  0  0  0  0  0  0  0  0  0  0
    2.0426    1.1166    7.3735 H   0  0  0  0  0  0  0  0  0  0  0  0
    1.3291   -0.3554    7.8847 H   0  0  0  0  0  0  0  0  0  0  0  0
    4.1695    0.9720    6.1239 H   0  0  0  0  0  0  0  0  0  0  0  0
    7.1428   -1.2940    6.1447 H   0  0  0  0  0  0  0  0  0  0  0  0
    6.0111   -1.1522    7.4747 H   0  0  0  0  0  0  0  0  0  0  0  0
    6.5683    0.2961    6.5989 H   0  0  0  0  0  0  0  0  0  0  0  0
    5.7138   -2.8504    4.7897 H   0  0  0  0  0  0  0  0  0  0  0  0
    4.0578   -2.8453    5.5390 H   0  0  0  0  0  0  0  0  0  0  0  0
    5.7073   -1.9292    1.7134 H   0  0  0  0  0  0  0  0  0  0  0  0
    2.4064   -2.9693    0.7589 H   0  0  0  0  0  0  0  0  0  0  0  0
    2.7511   -2.2236   -1.6512 H   0  0  0  0  0  0  0  0  0  0  0  0
    3.5035   -3.7538   -1.9922 H   0  0  0  0  0  0  0  0  0  0  0  0
    1.3138   -3.9401   -2.4779 H   0  0  0  0  0  0  0  0  0  0  0  0
    2.5212   -5.4199    0.4739 H   0  0  0  0  0  0  0  0  0  0  0  0
    3.9819   -5.6181   -1.1979 H   0  0  0  0  0  0  0  0  0  0  0  0
    3.1710   -4.5992    2.6311 H   0  0  0  0  0  0  0  0  0  0  0  0
    3.4965   -6.8682    2.2098 H   0  0  0  0  0  0  0  0  0  0  0  0
    5.4565   -4.0972    3.2427 H   0  0  0  0  0  0  0  0  0  0  0  0
    6.0006   -4.6623    0.5450 H   0  0  0  0  0  0  0  0  0  0  0  0
    6.2509   -0.7367    3.4767 H   0  0  0  0  0  0  0  0  0  0  0  0
    4.7343    1.6127    4.1987 H   0  0  0  0  0  0  0  0  0  0  0  0
    3.1253    2.1558    2.6268 H   0  0  0  0  0  0  0  0  0  0  0  0
    3.3982    0.6414    1.7082 H   0  0  0  0  0  0  0  0  0  0  0  0
    1.3183   -0.0462    1.9882 H   0  0  0  0  0  0  0  0  0  0  0  0
    2.0216    2.8762    4.4644 H   0  0  0  0  0  0  0  0  0  0  0  0
  1  2  1  0
  1 48  1  0
  1 49  1  0
  1 50  1  0
  2 11  1  0
  2  3  1  0
  2 51  1  1
  3  4  2  0
  3  5  1  0
  5  6  1  0
  5  7  1  1
  5  9  1  0
  6 52  1  0
  6 53  1  0
  6 54  1  0
  7  8  1  0
  8 55  1  0
  9 10  1  0
 10 45  1  0
 10 11  1  0
 10 56  1  6
 11 12  1  0
 11 57  1  6
 12 45  1  0
 12 13  1  0
 12 21  1  1
 13 14  1  0
 13 15  1  0
 13 58  1  6
 14 59  1  0
 15 20  1  0
 15 16  1  0
 15 60  1  1
 16 17  1  0
 16 61  1  0
 16 62  1  0
 17 18  1  0
 18 19  2  0
 18 20  1  0
 20 63  1  0
 20 64  1  0
 21 22  1  0
 21 65  1  0
 21 66  1  0
 22 23  1  0
 23 47  1  0
 23 24  1  0
 23 67  1  1
 24 40  1  0
 24 25  1  1
 24 26  1  0
 25 68  1  0
 25 69  1  0
 25 70  1  0
 26 27  1  0
 26 71  1  0
 26 72  1  0
 27 47  1  0
 27 28  1  6
 27 40  1  0
 28 29  1  0
 29 38  1  0
 29 30  1  0
 29 73  1  6
 30 31  1  0
 31 32  1  0
 31 34  1  0
 31 74  1  1
 32 33  1  0
 32 75  1  0
 32 76  1  0
 33 77  1  0
 34 35  1  0
 34 36  1  0
 34 78  1  1
 35 79  1  0
 36 37  1  0
 36 38  1  0
 36 80  1  1
 37 81  1  0
 38 39  1  0
 38 82  1  1
 39 83  1  0
 40 41  1  0
 40 84  1  6
 41 47  1  0
 41 42  1  0
 41 85  1  1
 42 43  1  0
 42 86  1  0
 42 87  1  0
 43 44  1  6
 43 45  1  0
 47 43  1  1
 44 88  1  0
 45 46  1  1
 46 89  1  0
M  END
>  <i_m_ct_stereo_status>  (247) 
1

>  <s_m_source_file>  (247) 
/var/tmp/pbs.5083858.sched01/tmp0tb1bq5q/100hrbsavei.sdf

>  <i_m_source_file_index>  (247) 
4

>  <i_lp_mmshare_version>  (247) 
48012

>  <i_f3d_flags>  (247) 
2

>  <s_epik_input>  (247) 
Tz1DKFtDSDJdMSlPW0NIMl1bQ0BIXTFbQ0BASF0oW09IXSlbQ0BdMihbQ0gyXU8zKVtDQEBIXShbQ0BIXShbQ0gzXSlDKD1PKVtDQEBdKE80KShbQ0gzXSlPW09IXSlbQ0BASF00W0NAXTIoW09IXSlbQ0BAXTUoW09IXSlbQ0gyXVtDSF02W0NASF0oW0NAQF03KFtDQEhdM0M1NjgpW0NIM10pQzgoW0NIMl03KU9bQ0BASF05T1tDQEBIXShbQ0gyXVtPSF0pW0NAQEhdKFtPSF0pW0NAQEhdKFtPSF0pW0NASF05W09IXQ==

>  <s_epik_cmdline>  (247) 
J2VwaWtfcHl0aG9uJywgJy1waHQnLCAnMi4wJywgJy1waCcsICc3LjAnLCAnLXRuJywgJzgnLCAnLW1hJywgJzIwMCcsICctaW1hZScsICc8aW5maWxlLm1hZT4nLCAnLW9tYWUnLCAnPG91dGZpbGUubWFlPic=

>  <r_lp_tautomer_probability>  (247) 
1

>  <r_epik_Ionization_Penalty>  (247) 
0.000214566

>  <r_epik_Ionization_Penalty_Charging>  (247) 
0

>  <r_epik_Ionization_Penalty_Neutral>  (247) 
0.000214566

>  <r_epik_State_Penalty>  (247) 
-0

>  <r_epik_Charging_Adjusted_Penalty>  (247) 
0

>  <i_epik_Tot_Q>  (247) 
0

>  <i_epik_Tot_abs_Q>  (247) 
0

>  <s_epik_Chemistry_Notes>  (247) 
This compound has an ester and may undergo hydrolysis at high or low pH. This compound contains an acetal/aminal-like group ( X-CH(R)-Y where X, Y are N, S, or O) that may be acid/base labile, releasing an aldehyde.

>  <s_lp_Force_Field>  (247) 
OPLS3e

>  <r_lp_Energy>  (247) 
144.042

>  <b_lp_Chiralities_Consistent>  (247) 
0

>  <s_lp_Variant>  (247) 
72:0-2

>  <s_i_glide_gridfile>  (247) 
pfpi4k_grid

>  <i_i_glide_lignum>  (247) 
4

>  <i_i_glide_rotatable_bonds>  (247) 
14

>  <r_i_docking_score>  (247) 
-4.81064

>  <r_i_glide_ligand_efficiency>  (247) 
-0.102354

>  <r_i_glide_ligand_efficiency_sa>  (247) 
-0.369378

>  <r_i_glide_ligand_efficiency_ln>  (247) 
-0.991854

>  <r_i_glide_gscore>  (247) 
-4.81064

>  <r_i_glide_lipo>  (247) 
-0.312802

>  <r_i_glide_hbond>  (247) 
-0.285849

>  <r_i_glide_metal>  (247) 
-0

>  <r_i_glide_rewards>  (247) 
-1.08582

>  <r_i_glide_evdw>  (247) 
-23.3495

>  <r_i_glide_ecoul>  (247) 
-13.6609

>  <r_i_glide_erotb>  (247) 
0.122626

>  <r_i_glide_esite>  (247) 
-0.0321909

>  <r_i_glide_emodel>  (247) 
-56.3148

>  <r_i_glide_energy>  (247) 
-37.0103

>  <r_i_glide_einternal>  (247) 
7.07964

>  <r_i_glide_intrahb_reward>  (247) 
-1

>  <i_i_glide_confnum>  (247) 
13

>  <i_i_glide_posenum>  (247) 
29

>  <r_i_glide_eff_state_penalty>  (247) 
0

>  <ligand_id>  (247) 
72

>  <original_smiles>  (247) 
CC1C(=O)C(C)(OO)OC2C1C1(C(O)C3COC(=O)C3)COC3C4(C)CC5(OC6OC(CO)C(O)C(O)C6O)C4C4CC(O)(C21O)C435

>  <smiles>  (247) 
[H]OOC1(C([H])([H])[H])OC2([H])C([H])(C([H])(C([H])([H])[H])C1=O)C1(C([H])(O[H])C3([H])C([H])([H])OC(=O)C3([H])[H])C([H])([H])OC3([H])C4(C([H])([H])[H])C([H])([H])C5(OC6([H])OC([H])(C([H])([H])O[H])C([H])(O[H])C([H])(O[H])C6([H])O[H])C4([H])C4([H])C([H])([H])C(O[H])(C21O[H])C345

$$$$
72:1:2
     RDKit          3D

 89 97  0  0  1  0  0  0  0  0999 V2000
   -1.0237    1.5029    8.2050 C   0  0  0  0  0  0  0  0  0  0  0  0
   -0.5517    1.9731    6.8057 C   0  0  2  0  0  0  0  0  0  0  0  0
   -1.4626    3.0531    6.1779 C   0  0  0  0  0  0  0  0  0  0  0  0
   -2.1909    3.7431    6.8824 O   0  0  0  0  0  0  0  0  0  0  0  0
   -1.4584    3.2248    4.6341 C   0  0  1  0  0  0  0  0  0  0  0  0
   -2.7218    2.5386    4.0586 C   0  0  0  0  0  0  0  0  0  0  0  0
   -1.4893    4.6206    4.3395 O   0  0  0  0  0  0  0  0  0  0  0  0
   -1.7477    4.8355    2.9088 O   0  0  0  0  0  0  0  0  0  0  0  0
   -0.2843    2.6440    4.0616 O   0  0  0  0  0  0  0  0  0  0  0  0
   -0.0482    1.2642    4.3482 C   0  0  2  0  0  0  0  0  0  0  0  0
   -0.3777    0.8273    5.7955 C   0  0  1  0  0  0  0  0  0  0  0  0
    0.9216   -0.0407    5.7586 C   0  0  2  0  0  0  0  0  0  0  0  0
    0.6768   -1.5828    5.3976 C   0  0  2  0  0  0  0  0  0  0  0  0
   -0.3980   -1.6730    4.4795 O   0  0  0  0  0  0  0  0  0  0  0  0
    0.3228   -2.5896    6.5528 C   0  0  2  0  0  0  0  0  0  0  0  0
    1.5268   -3.0625    7.4115 C   0  0  0  0  0  0  0  0  0  0  0  0
    1.8977   -4.3381    6.9245 O   0  0  0  0  0  0  0  0  0  0  0  0
    0.9846   -4.9022    6.1645 C   0  0  0  0  0  0  0  0  0  0  0  0
    1.0625   -6.0063    5.6234 O   0  0  0  0  0  0  0  0  0  0  0  0
   -0.2020   -3.9667    6.0725 C   0  0  0  0  0  0  0  0  0  0  0  0
    1.8623   -0.0190    6.9803 C   0  0  0  0  0  0  0  0  0  0  0  0
    3.0879   -0.7042    6.7320 O   0  0  0  0  0  0  0  0  0  0  0  0
    3.9639   -0.1212    5.8025 C   0  0  1  0  0  0  0  0  0  0  0  0
    5.2359   -0.9193    5.4921 C   0  0  1  0  0  0  0  0  0  0  0  0
    6.3580   -0.7718    6.5037 C   0  0  0  0  0  0  0  0  0  0  0  0
    4.9298   -2.3247    4.9212 C   0  0  0  0  0  0  0  0  0  0  0  0
    4.3125   -1.4664    3.8331 C   0  0  2  0  0  0  0  0  0  0  0  0
    4.0232   -1.9685    2.5144 O   0  0  0  0  0  0  0  0  0  0  0  0
    5.0426   -2.4141    1.6312 C   0  0  2  0  0  0  0  0  0  0  0  0
    4.5987   -2.3914    0.2815 O   0  0  0  0  0  0  0  0  0  0  0  0
    3.4903   -3.2666   -0.0054 C   0  0  1  0  0  0  0  0  0  0  0  0
    3.0351   -3.0519   -1.4627 C   0  0  0  0  0  0  0  0  0  0  0  0
    1.8818   -3.8381   -1.7567 O   0  0  0  0  0  0  0  0  0  0  0  0
    3.9289   -4.7326    0.2494 C   0  0  1  0  0  0  0  0  0  0  0  0
    4.9027   -5.1415   -0.7141 O   0  0  0  0  0  0  0  0  0  0  0  0
    4.4640   -4.8842    1.6810 C   0  0  1  0  0  0  0  0  0  0  0  0
    4.9050   -6.2171    1.9516 O   0  0  0  0  0  0  0  0  0  0  0  0
    5.5544   -3.8393    1.9724 C   0  0  1  0  0  0  0  0  0  0  0  0
    6.7156   -4.0555    1.1801 O   0  0  0  0  0  0  0  0  0  0  0  0
    5.4547   -0.5006    4.0036 C   0  0  1  0  0  0  0  0  0  0  0  0
    4.5491    0.7146    3.6489 C   0  0  2  0  0  0  0  0  0  0  0  0
    3.3750    1.0444    2.7031 C   0  0  0  0  0  0  0  0  0  0  0  0
    2.3394    0.3049    3.5906 C   0  0  2  0  0  0  0  0  0  0  0  0
    1.6040   -0.5751    2.7576 O   0  0  0  0  0  0  0  0  0  0  0  0
    1.4262    0.9769    4.6430 C   0  0  1  0  0  0  0  0  0  0  0  0
    2.0472    2.1427    5.1629 O   0  0  0  0  0  0  0  0  0  0  0  0
    3.5786   -0.2455    4.3331 C   0  0  2  0  0  0  0  0  0  0  0  0
   -0.9734    2.3195    8.9207 H   0  0  0  0  0  0  0  0  0  0  0  0
   -0.3926    0.7070    8.6041 H   0  0  0  0  0  0  0  0  0  0  0  0
   -2.0505    1.1396    8.1970 H   0  0  0  0  0  0  0  0  0  0  0  0
    0.4116    2.4615    6.9629 H   0  0  0  0  0  0  0  0  0  0  0  0
   -2.8203    2.6387    2.9783 H   0  0  0  0  0  0  0  0  0  0  0  0
   -3.6235    2.9470    4.5130 H   0  0  0  0  0  0  0  0  0  0  0  0
   -2.6874    1.4703    4.2516 H   0  0  0  0  0  0  0  0  0  0  0  0
   -0.9076    4.5853    2.5231 H   0  0  0  0  0  0  0  0  0  0  0  0
   -0.5038    0.6351    3.5847 H   0  0  0  0  0  0  0  0  0  0  0  0
   -1.2786    0.2103    5.7961 H   0  0  0  0  0  0  0  0  0  0  0  0
    1.5429   -1.9972    4.8796 H   0  0  0  0  0  0  0  0  0  0  0  0
   -0.1031   -1.2930    3.6563 H   0  0  0  0  0  0  0  0  0  0  0  0
   -0.4388   -2.1160    7.1752 H   0  0  0  0  0  0  0  0  0  0  0  0
    2.4435   -2.5286    7.3253 H   0  0  0  0  0  0  0  0  0  0  0  0
    1.2544   -3.1434    8.4653 H   0  0  0  0  0  0  0  0  0  0  0  0
   -0.9588   -4.3453    6.7561 H   0  0  0  0  0  0  0  0  0  0  0  0
   -0.5852   -3.9893    5.0560 H   0  0  0  0  0  0  0  0  0  0  0  0
    2.0600    0.9918    7.3417 H   0  0  0  0  0  0  0  0  0  0  0  0
    1.3758   -0.5027    7.8251 H   0  0  0  0  0  0  0  0  0  0  0  0
    4.2169    0.9028    6.1227 H   0  0  0  0  0  0  0  0  0  0  0  0
    7.2526   -1.2859    6.1669 H   0  0  0  0  0  0  0  0  0  0  0  0
    6.0854   -1.1976    7.4720 H   0  0  0  0  0  0  0  0  0  0  0  0
    6.6186    0.2787    6.6315 H   0  0  0  0  0  0  0  0  0  0  0  0
    5.8284   -2.8963    4.7249 H   0  0  0  0  0  0  0  0  0  0  0  0
    4.1960   -2.9023    5.4832 H   0  0  0  0  0  0  0  0  0  0  0  0
    5.8526   -1.6776    1.6598 H   0  0  0  0  0  0  0  0  0  0  0  0
    2.6614   -2.9841    0.6495 H   0  0  0  0  0  0  0  0  0  0  0  0
    2.8140   -1.9990   -1.6577 H   0  0  0  0  0  0  0  0  0  0  0  0
    3.8265   -3.3168   -2.1674 H   0  0  0  0  0  0  0  0  0  0  0  0
    2.1663   -4.7307   -2.0401 H   0  0  0  0  0  0  0  0  0  0  0  0
    3.0542   -5.3729    0.1401 H   0  0  0  0  0  0  0  0  0  0  0  0
    4.4521   -5.3243   -1.5557 H   0  0  0  0  0  0  0  0  0  0  0  0
    3.6366   -4.6858    2.3635 H   0  0  0  0  0  0  0  0  0  0  0  0
    4.1874   -6.8428    1.7821 H   0  0  0  0  0  0  0  0  0  0  0  0
    5.8435   -3.9452    3.0120 H   0  0  0  0  0  0  0  0  0  0  0  0
    6.4184   -4.2526    0.2765 H   0  0  0  0  0  0  0  0  0  0  0  0
    6.4004   -0.6868    3.4958 H   0  0  0  0  0  0  0  0  0  0  0  0
    4.8038    1.5950    4.2294 H   0  0  0  0  0  0  0  0  0  0  0  0
    3.1919    2.1200    2.6384 H   0  0  0  0  0  0  0  0  0  0  0  0
    3.5327    0.6255    1.6984 H   0  0  0  0  0  0  0  0  0  0  0  0
    1.4180   -0.1103    1.9449 H   0  0  0  0  0  0  0  0  0  0  0  0
    2.0884    2.7640    4.4520 H   0  0  0  0  0  0  0  0  0  0  0  0
  1  2  1  0
  1 48  1  0
  1 49  1  0
  1 50  1  0
  2 11  1  0
  2  3  1  0
  2 51  1  1
  3  4  2  0
  3  5  1  0
  5  6  1  0
  5  7  1  1
  5  9  1  0
  6 52  1  0
  6 53  1  0
  6 54  1  0
  7  8  1  0
  8 55  1  0
  9 10  1  0
 10 45  1  0
 10 11  1  0
 10 56  1  6
 11 12  1  0
 11 57  1  6
 12 45  1  0
 12 13  1  0
 12 21  1  1
 13 14  1  0
 13 15  1  0
 13 58  1  6
 14 59  1  0
 15 20  1  0
 15 16  1  0
 15 60  1  1
 16 17  1  0
 16 61  1  0
 16 62  1  0
 17 18  1  0
 18 19  2  0
 18 20  1  0
 20 63  1  0
 20 64  1  0
 21 22  1  0
 21 65  1  0
 21 66  1  0
 22 23  1  0
 23 47  1  0
 23 24  1  0
 23 67  1  1
 24 40  1  0
 24 25  1  1
 24 26  1  0
 25 68  1  0
 25 69  1  0
 25 70  1  0
 26 27  1  0
 26 71  1  0
 26 72  1  0
 27 47  1  0
 27 28  1  6
 27 40  1  0
 28 29  1  0
 29 38  1  0
 29 30  1  0
 29 73  1  6
 30 31  1  0
 31 32  1  0
 31 34  1  0
 31 74  1  1
 32 33  1  0
 32 75  1  0
 32 76  1  0
 33 77  1  0
 34 35  1  0
 34 36  1  0
 34 78  1  1
 35 79  1  0
 36 37  1  0
 36 38  1  0
 36 80  1  1
 37 81  1  0
 38 39  1  0
 38 82  1  1
 39 83  1  0
 40 41  1  0
 40 84  1  6
 41 47  1  0
 41 42  1  0
 41 85  1  1
 42 43  1  0
 42 86  1  0
 42 87  1  0
 43 44  1  6
 43 45  1  0
 47 43  1  1
 44 88  1  0
 45 46  1  1
 46 89  1  0
M  END
>  <i_m_ct_stereo_status>  (248) 
1

>  <s_m_source_file>  (248) 
/var/tmp/pbs.5083858.sched01/tmp0tb1bq5q/100hrbsavei.sdf

>  <i_m_source_file_index>  (248) 
4

>  <i_lp_mmshare_version>  (248) 
48012

>  <i_f3d_flags>  (248) 
2

>  <s_epik_input>  (248) 
Tz1DKFtDSDJdMSlPW0NIMl1bQ0BIXTFbQ0BASF0oW09IXSlbQ0BdMihbQ0gyXU8zKVtDQEBIXShbQ0BIXShbQ0gzXSlDKD1PKVtDQEBdKE80KShbQ0gzXSlPW09IXSlbQ0BASF00W0NAXTIoW09IXSlbQ0BAXTUoW09IXSlbQ0gyXVtDSF02W0NASF0oW0NAQF03KFtDQEhdM0M1NjgpW0NIM10pQzgoW0NIMl03KU9bQ0BASF05T1tDQEBIXShbQ0gyXVtPSF0pW0NAQEhdKFtPSF0pW0NAQEhdKFtPSF0pW0NASF05W09IXQ==

>  <s_epik_cmdline>  (248) 
J2VwaWtfcHl0aG9uJywgJy1waHQnLCAnMi4wJywgJy1waCcsICc3LjAnLCAnLXRuJywgJzgnLCAnLW1hJywgJzIwMCcsICctaW1hZScsICc8aW5maWxlLm1hZT4nLCAnLW9tYWUnLCAnPG91dGZpbGUubWFlPic=

>  <r_lp_tautomer_probability>  (248) 
1

>  <r_epik_Ionization_Penalty>  (248) 
0.000214566

>  <r_epik_Ionization_Penalty_Charging>  (248) 
0

>  <r_epik_Ionization_Penalty_Neutral>  (248) 
0.000214566

>  <r_epik_State_Penalty>  (248) 
-0

>  <r_epik_Charging_Adjusted_Penalty>  (248) 
0

>  <i_epik_Tot_Q>  (248) 
0

>  <i_epik_Tot_abs_Q>  (248) 
0

>  <s_epik_Chemistry_Notes>  (248) 
This compound has an ester and may undergo hydrolysis at high or low pH. This compound contains an acetal/aminal-like group ( X-CH(R)-Y where X, Y are N, S, or O) that may be acid/base labile, releasing an aldehyde.

>  <s_lp_Force_Field>  (248) 
OPLS3e

>  <r_lp_Energy>  (248) 
144.042

>  <b_lp_Chiralities_Consistent>  (248) 
0

>  <s_lp_Variant>  (248) 
72:0-2

>  <s_i_glide_gridfile>  (248) 
pfpi4k_grid

>  <i_i_glide_lignum>  (248) 
4

>  <i_i_glide_rotatable_bonds>  (248) 
14

>  <r_i_docking_score>  (248) 
-4.75816

>  <r_i_glide_ligand_efficiency>  (248) 
-0.101237

>  <r_i_glide_ligand_efficiency_sa>  (248) 
-0.365348

>  <r_i_glide_ligand_efficiency_ln>  (248) 
-0.981034

>  <r_i_glide_gscore>  (248) 
-4.75816

>  <r_i_glide_lipo>  (248) 
-0.290898

>  <r_i_glide_hbond>  (248) 
-0.0994549

>  <r_i_glide_metal>  (248) 
-0

>  <r_i_glide_rewards>  (248) 
-1.10075

>  <r_i_glide_evdw>  (248) 
-25.1984

>  <r_i_glide_ecoul>  (248) 
-14.013

>  <r_i_glide_erotb>  (248) 
0.122626

>  <r_i_glide_esite>  (248) 
-0.0278126

>  <r_i_glide_emodel>  (248) 
-56.5529

>  <r_i_glide_energy>  (248) 
-39.2114

>  <r_i_glide_einternal>  (248) 
8.37435

>  <r_i_glide_intrahb_reward>  (248) 
-1

>  <i_i_glide_confnum>  (248) 
13

>  <i_i_glide_posenum>  (248) 
30

>  <r_i_glide_eff_state_penalty>  (248) 
0

>  <ligand_id>  (248) 
72

>  <original_smiles>  (248) 
CC1C(=O)C(C)(OO)OC2C1C1(C(O)C3COC(=O)C3)COC3C4(C)CC5(OC6OC(CO)C(O)C(O)C6O)C4C4CC(O)(C21O)C435

>  <smiles>  (248) 
[H]OOC1(C([H])([H])[H])OC2([H])C([H])(C([H])(C([H])([H])[H])C1=O)C1(C([H])(O[H])C3([H])C([H])([H])OC(=O)C3([H])[H])C([H])([H])OC3([H])C4(C([H])([H])[H])C([H])([H])C5(OC6([H])OC([H])(C([H])([H])O[H])C([H])(O[H])C([H])(O[H])C6([H])O[H])C4([H])C4([H])C([H])([H])C(O[H])(C21O[H])C345

$$$$
72:2:0
     RDKit          3D

 89 97  0  0  1  0  0  0  0  0999 V2000
    7.0388   -1.0613    1.0417 C   0  0  0  0  0  0  0  0  0  0  0  0
    5.8241   -1.9469    0.8083 C   0  0  2  0  0  0  0  0  0  0  0  0
    5.5909   -2.1469   -0.6771 C   0  0  0  0  0  0  0  0  0  0  0  0
    6.5145   -2.0185   -1.5157 O   0  0  0  0  0  0  0  0  0  0  0  0
    4.1983   -2.5327   -1.1701 C   0  0  1  0  0  0  0  0  0  0  0  0
    3.5345   -1.3077   -1.7862 C   0  0  0  0  0  0  0  0  0  0  0  0
    4.3605   -3.4522   -2.2343 O   0  0  0  0  0  0  0  0  0  0  0  0
    5.0039   -4.6502   -1.6968 O   0  0  0  0  0  0  0  0  0  0  0  0
    3.3734   -3.0553   -0.0924 O   0  0  0  0  0  0  0  0  0  0  0  0
    3.2073   -2.2090    1.0830 C   0  0  2  0  0  0  0  0  0  0  0  0
    4.5111   -1.4135    1.4302 C   0  0  1  0  0  0  0  0  0  0  0  0
    4.1506   -1.5859    2.9395 C   0  0  2  0  0  0  0  0  0  0  0  0
    3.4725   -0.2377    3.4397 C   0  0  2  0  0  0  0  0  0  0  0  0
    3.4628   -0.1156    4.8546 O   0  0  0  0  0  0  0  0  0  0  0  0
    2.0802    0.2500    2.8659 C   0  0  2  0  0  0  0  0  0  0  0  0
    2.1295    1.0569    1.5786 C   0  0  0  0  0  0  0  0  0  0  0  0
    0.9209    1.7979    1.6681 O   0  0  0  0  0  0  0  0  0  0  0  0
    0.4597    1.9578    2.9095 C   0  0  0  0  0  0  0  0  0  0  0  0
   -0.5063    2.6416    3.2871 O   0  0  0  0  0  0  0  0  0  0  0  0
    1.2986    1.1433    3.8418 C   0  0  0  0  0  0  0  0  0  0  0  0
    5.1733   -1.9660    4.0625 C   0  0  0  0  0  0  0  0  0  0  0  0
    4.6051   -2.5020    5.3238 O   0  0  0  0  0  0  0  0  0  0  0  0
    4.3199   -3.9019    5.2205 C   0  0  1  0  0  0  0  0  0  0  0  0
    4.0140   -5.0398    6.2017 C   0  0  2  0  0  0  0  0  0  0  0  0
    4.2947   -4.7372    7.6680 C   0  0  0  0  0  0  0  0  0  0  0  0
    4.5183   -6.3408    5.5114 C   0  0  0  0  0  0  0  0  0  0  0  0
    3.4641   -5.8382    4.4698 C   0  0  1  0  0  0  0  0  0  0  0  0
    2.9956   -6.7095    3.4097 O   0  0  0  0  0  0  0  0  0  0  0  0
    2.4246   -7.9326    3.7101 C   0  0  2  0  0  0  0  0  0  0  0  0
    3.1801   -8.9830    3.1480 O   0  0  0  0  0  0  0  0  0  0  0  0
    2.6759  -10.3145    3.4398 C   0  0  1  0  0  0  0  0  0  0  0  0
    2.8823  -10.6238    4.9508 C   0  0  0  0  0  0  0  0  0  0  0  0
    2.4013  -11.9125    5.2829 O   0  0  0  0  0  0  0  0  0  0  0  0
    1.2077  -10.4326    2.8954 C   0  0  1  0  0  0  0  0  0  0  0  0
    0.6518  -11.6877    3.1385 O   0  0  0  0  0  0  0  0  0  0  0  0
    0.3022   -9.3300    3.4124 C   0  0  1  0  0  0  0  0  0  0  0  0
    0.0141   -9.5010    4.8068 O   0  0  0  0  0  0  0  0  0  0  0  0
    0.9642   -7.9818    3.1751 C   0  0  1  0  0  0  0  0  0  0  0  0
    0.1752   -6.9982    3.8267 O   0  0  0  0  0  0  0  0  0  0  0  0
    2.6473   -5.6646    5.7313 C   0  0  2  0  0  0  0  0  0  0  0  0
    1.7450   -4.7039    4.9647 C   0  0  1  0  0  0  0  0  0  0  0  0
    1.3635   -4.4853    3.4197 C   0  0  0  0  0  0  0  0  0  0  0  0
    2.3852   -3.3531    3.4615 C   0  0  2  0  0  0  0  0  0  0  0  0
    1.7102   -2.2738    4.0548 O   0  0  0  0  0  0  0  0  0  0  0  0
    3.4354   -2.9194    2.4292 C   0  0  1  0  0  0  0  0  0  0  0  0
    4.2658   -4.0190    2.1490 O   0  0  0  0  0  0  0  0  0  0  0  0
    3.1364   -4.3191    4.4378 C   0  0  1  0  0  0  0  0  0  0  0  0
    7.9667   -1.5502    0.7320 H   0  0  0  0  0  0  0  0  0  0  0  0
    7.1053   -0.7818    2.0902 H   0  0  0  0  0  0  0  0  0  0  0  0
    6.9358   -0.1478    0.4556 H   0  0  0  0  0  0  0  0  0  0  0  0
    6.1060   -2.9200    1.2186 H   0  0  0  0  0  0  0  0  0  0  0  0
    2.5344   -1.4801   -2.2064 H   0  0  0  0  0  0  0  0  0  0  0  0
    4.1514   -0.8800   -2.5811 H   0  0  0  0  0  0  0  0  0  0  0  0
    3.4585   -0.5831   -0.9853 H   0  0  0  0  0  0  0  0  0  0  0  0
    4.2611   -5.2357   -1.7322 H   0  0  0  0  0  0  0  0  0  0  0  0
    2.2913   -1.6311    1.0585 H   0  0  0  0  0  0  0  0  0  0  0  0
    4.4118   -0.3588    1.1561 H   0  0  0  0  0  0  0  0  0  0  0  0
    4.2219    0.5242    3.2266 H   0  0  0  0  0  0  0  0  0  0  0  0
    3.1344    0.7336    5.0951 H   0  0  0  0  0  0  0  0  0  0  0  0
    1.3629   -0.5224    2.5829 H   0  0  0  0  0  0  0  0  0  0  0  0
    3.0332    1.6674    1.5030 H   0  0  0  0  0  0  0  0  0  0  0  0
    2.0590    0.4076    0.7099 H   0  0  0  0  0  0  0  0  0  0  0  0
    0.6898    0.5368    4.5208 H   0  0  0  0  0  0  0  0  0  0  0  0
    1.9186    1.8251    4.4325 H   0  0  0  0  0  0  0  0  0  0  0  0
    5.9169   -2.6348    3.6427 H   0  0  0  0  0  0  0  0  0  0  0  0
    5.7342   -1.0688    4.3153 H   0  0  0  0  0  0  0  0  0  0  0  0
    5.2001   -4.2330    4.6798 H   0  0  0  0  0  0  0  0  0  0  0  0
    4.0268   -5.5908    8.2908 H   0  0  0  0  0  0  0  0  0  0  0  0
    3.6842   -3.8880    7.9923 H   0  0  0  0  0  0  0  0  0  0  0  0
    5.3492   -4.4900    7.8381 H   0  0  0  0  0  0  0  0  0  0  0  0
    5.5479   -6.3095    5.1640 H   0  0  0  0  0  0  0  0  0  0  0  0
    4.3074   -7.2707    6.0389 H   0  0  0  0  0  0  0  0  0  0  0  0
    2.5269   -8.0548    4.7900 H   0  0  0  0  0  0  0  0  0  0  0  0
    3.2413  -11.0500    2.8571 H   0  0  0  0  0  0  0  0  0  0  0  0
    3.9351  -10.5835    5.2247 H   0  0  0  0  0  0  0  0  0  0  0  0
    2.3576   -9.9272    5.6147 H   0  0  0  0  0  0  0  0  0  0  0  0
    2.1006  -11.9162    6.2151 H   0  0  0  0  0  0  0  0  0  0  0  0
    1.2365  -10.2782    1.8167 H   0  0  0  0  0  0  0  0  0  0  0  0
    0.7798  -11.9068    4.0693 H   0  0  0  0  0  0  0  0  0  0  0  0
   -0.6328   -9.3401    2.8417 H   0  0  0  0  0  0  0  0  0  0  0  0
   -0.6058  -10.2484    4.9424 H   0  0  0  0  0  0  0  0  0  0  0  0
    0.9857   -7.7980    2.1077 H   0  0  0  0  0  0  0  0  0  0  0  0
    0.2879   -7.2205    4.7568 H   0  0  0  0  0  0  0  0  0  0  0  0
    2.2386   -6.5479    6.2379 H   0  0  0  0  0  0  0  0  0  0  0  0
    1.3034   -4.0030    5.6637 H   0  0  0  0  0  0  0  0  0  0  0  0
    1.5460   -5.1959    2.6030 H   0  0  0  0  0  0  0  0  0  0  0  0
    0.3301   -4.1409    3.3504 H   0  0  0  0  0  0  0  0  0  0  0  0
    1.0873   -1.9322    3.4174 H   0  0  0  0  0  0  0  0  0  0  0  0
    3.8175   -4.4951    1.4537 H   0  0  0  0  0  0  0  0  0  0  0  0
  1  2  1  0
  1 48  1  0
  1 49  1  0
  1 50  1  0
  2 11  1  0
  2  3  1  0
  2 51  1  1
  3  4  2  0
  3  5  1  0
  5  6  1  0
  5  7  1  6
  5  9  1  0
  6 52  1  0
  6 53  1  0
  6 54  1  0
  7  8  1  0
  8 55  1  0
  9 10  1  0
 10 45  1  0
 10 11  1  0
 10 56  1  1
 11 12  1  0
 11 57  1  6
 12 45  1  0
 12 13  1  0
 12 21  1  1
 13 14  1  0
 13 15  1  0
 13 58  1  6
 14 59  1  0
 15 20  1  0
 15 16  1  0
 15 60  1  6
 16 17  1  0
 16 61  1  0
 16 62  1  0
 17 18  1  0
 18 19  2  0
 18 20  1  0
 20 63  1  0
 20 64  1  0
 21 22  1  0
 21 65  1  0
 21 66  1  0
 22 23  1  0
 23 47  1  0
 23 24  1  0
 23 67  1  6
 24 40  1  0
 24 25  1  1
 24 26  1  0
 25 68  1  0
 25 69  1  0
 25 70  1  0
 26 27  1  0
 26 71  1  0
 26 72  1  0
 27 47  1  0
 27 28  1  6
 27 40  1  0
 28 29  1  0
 29 38  1  0
 29 30  1  0
 29 73  1  1
 30 31  1  0
 31 32  1  0
 31 34  1  0
 31 74  1  6
 32 33  1  0
 32 75  1  0
 32 76  1  0
 33 77  1  0
 34 35  1  0
 34 36  1  0
 34 78  1  6
 35 79  1  0
 36 37  1  0
 36 38  1  0
 36 80  1  6
 37 81  1  0
 38 39  1  0
 38 82  1  6
 39 83  1  0
 40 41  1  0
 40 84  1  1
 41 47  1  0
 41 42  1  0
 41 85  1  1
 42 43  1  0
 42 86  1  0
 42 87  1  0
 43 44  1  1
 43 45  1  0
 47 43  1  6
 44 88  1  0
 45 46  1  6
 46 89  1  0
M  END
>  <i_m_ct_stereo_status>  (249) 
1

>  <s_m_source_file>  (249) 
/var/tmp/pbs.5083858.sched01/tmp0tb1bq5q/100hrbsavei.sdf

>  <i_m_source_file_index>  (249) 
5

>  <i_lp_mmshare_version>  (249) 
48012

>  <i_f3d_flags>  (249) 
0

>  <s_epik_input>  (249) 
Tz1DKFtDSDJdMSlPW0NIMl1bQ0BIXTFbQ0BASF0oW09IXSlbQ0BdMihbQ0gyXU8zKVtDQEBIXShbQ0BIXShbQ0gzXSlDKD1PKVtDQEBdKE80KShbQ0gzXSlPW09IXSlbQ0BASF00W0NAXTIoW09IXSlbQ0BAXTUoW09IXSlbQ0gyXVtDSF02W0NASF0oW0NAQF03KFtDQEhdM0M1NjgpW0NIM10pQzgoW0NIMl03KU9bQ0BASF05T1tDQEBIXShbQ0gyXVtPSF0pW0NAQEhdKFtPSF0pW0NAQEhdKFtPSF0pW0NASF05W09IXQ==

>  <s_epik_cmdline>  (249) 
J2VwaWtfcHl0aG9uJywgJy1waHQnLCAnMi4wJywgJy1waCcsICc3LjAnLCAnLXRuJywgJzgnLCAnLW1hJywgJzIwMCcsICctaW1hZScsICc8aW5maWxlLm1hZT4nLCAnLW9tYWUnLCAnPG91dGZpbGUubWFlPic=

>  <r_lp_tautomer_probability>  (249) 
1

>  <r_epik_Ionization_Penalty>  (249) 
0.000214566

>  <r_epik_Ionization_Penalty_Charging>  (249) 
0

>  <r_epik_Ionization_Penalty_Neutral>  (249) 
0.000214566

>  <r_epik_State_Penalty>  (249) 
-0

>  <r_epik_Charging_Adjusted_Penalty>  (249) 
0

>  <i_epik_Tot_Q>  (249) 
0

>  <i_epik_Tot_abs_Q>  (249) 
0

>  <s_epik_Chemistry_Notes>  (249) 
This compound has an ester and may undergo hydrolysis at high or low pH. This compound contains an acetal/aminal-like group ( X-CH(R)-Y where X, Y are N, S, or O) that may be acid/base labile, releasing an aldehyde.

>  <s_lp_Force_Field>  (249) 
OPLS3e

>  <r_lp_Energy>  (249) 
235.91

>  <b_lp_Chiralities_Consistent>  (249) 
1

>  <s_lp_Variant>  (249) 
72:0-3

>  <s_i_glide_gridfile>  (249) 
pfpi4k_grid

>  <i_i_glide_lignum>  (249) 
5

>  <i_i_glide_rotatable_bonds>  (249) 
14

>  <r_i_docking_score>  (249) 
-4.53878

>  <r_i_glide_ligand_efficiency>  (249) 
-0.0965697

>  <r_i_glide_ligand_efficiency_sa>  (249) 
-0.348503

>  <r_i_glide_ligand_efficiency_ln>  (249) 
-0.935802

>  <r_i_glide_gscore>  (249) 
-4.53878

>  <r_i_glide_lipo>  (249) 
-0.34834

>  <r_i_glide_hbond>  (249) 
-0.144

>  <r_i_glide_metal>  (249) 
-0

>  <r_i_glide_rewards>  (249) 
-0.5

>  <r_i_glide_evdw>  (249) 
-23.5304

>  <r_i_glide_ecoul>  (249) 
-16.7894

>  <r_i_glide_erotb>  (249) 
0.122626

>  <r_i_glide_esite>  (249) 
-0.110551

>  <r_i_glide_emodel>  (249) 
-45.235

>  <r_i_glide_energy>  (249) 
-40.3197

>  <r_i_glide_einternal>  (249) 
14.6501

>  <r_i_glide_intrahb_reward>  (249) 
-0.5

>  <i_i_glide_confnum>  (249) 
2

>  <i_i_glide_posenum>  (249) 
32

>  <r_i_glide_eff_state_penalty>  (249) 
0

>  <ligand_id>  (249) 
72

>  <original_smiles>  (249) 
CC1C(=O)C(C)(OO)OC2C1C1(C(O)C3COC(=O)C3)COC3C4(C)CC5(OC6OC(CO)C(O)C(O)C6O)C4C4CC(O)(C21O)C435

>  <smiles>  (249) 
[H]OOC1(C([H])([H])[H])OC2([H])C([H])(C([H])(C([H])([H])[H])C1=O)C1(C([H])(O[H])C3([H])C([H])([H])OC(=O)C3([H])[H])C([H])([H])OC3([H])C4(C([H])([H])[H])C([H])([H])C5(OC6([H])OC([H])(C([H])([H])O[H])C([H])(O[H])C([H])(O[H])C6([H])O[H])C4([H])C4([H])C([H])([H])C(O[H])(C21O[H])C345

$$$$
72:2:1
     RDKit          3D

 89 97  0  0  1  0  0  0  0  0999 V2000
    1.4597    5.0142    5.8515 C   0  0  0  0  0  0  0  0  0  0  0  0
    0.9169    3.7560    5.1313 C   0  0  2  0  0  0  0  0  0  0  0  0
   -0.1876    4.1168    4.1114 C   0  0  0  0  0  0  0  0  0  0  0  0
   -0.2731    5.2168    3.5933 O   0  0  0  0  0  0  0  0  0  0  0  0
   -1.2934    3.0278    3.8204 C   0  0  1  0  0  0  0  0  0  0  0  0
   -2.5578    3.3939    4.6558 C   0  0  0  0  0  0  0  0  0  0  0  0
   -1.5864    3.1137    2.4490 O   0  0  0  0  0  0  0  0  0  0  0  0
   -3.0525    3.1204    2.1828 O   0  0  0  0  0  0  0  0  0  0  0  0
   -0.8579    1.7001    4.1265 O   0  0  0  0  0  0  0  0  0  0  0  0
   -0.4113    1.4838    5.4673 C   0  0  2  0  0  0  0  0  0  0  0  0
    0.3114    2.7121    6.0905 C   0  0  1  0  0  0  0  0  0  0  0  0
    1.1641    1.7111    6.8914 C   0  0  2  0  0  0  0  0  0  0  0  0
    0.6168    1.5285    8.3682 C   0  0  2  0  0  0  0  0  0  0  0  0
   -0.7358    1.0925    8.3898 O   0  0  0  0  0  0  0  0  0  0  0  0
    0.6915    2.7284    9.3756 C   0  0  2  0  0  0  0  0  0  0  0  0
    0.2789    2.2470   10.7860 C   0  0  0  0  0  0  0  0  0  0  0  0
   -1.0770    2.6441   10.8755 O   0  0  0  0  0  0  0  0  0  0  0  0
   -1.4099    3.5853    9.9894 C   0  0  0  0  0  0  0  0  0  0  0  0
   -2.5443    4.0221    9.8219 O   0  0  0  0  0  0  0  0  0  0  0  0
   -0.2132    3.9348    9.1361 C   0  0  0  0  0  0  0  0  0  0  0  0
    2.7296    1.8011    7.1198 C   0  0  0  0  0  0  0  0  0  0  0  0
    3.3493    0.5401    7.5425 O   0  0  0  0  0  0  0  0  0  0  0  0
    3.7182   -0.2427    6.3879 C   0  0  1  0  0  0  0  0  0  0  0  0
    4.6734   -1.4042    6.1179 C   0  0  2  0  0  0  0  0  0  0  0  0
    5.7401   -1.7222    7.1363 C   0  0  0  0  0  0  0  0  0  0  0  0
    5.0658   -1.2859    4.6305 C   0  0  0  0  0  0  0  0  0  0  0  0
    3.5339   -1.4558    4.5300 C   0  0  1  0  0  0  0  0  0  0  0  0
    2.9149   -1.8022    3.2423 O   0  0  0  0  0  0  0  0  0  0  0  0
    3.7259   -2.1461    2.1622 C   0  0  2  0  0  0  0  0  0  0  0  0
    4.6089   -3.2007    2.4905 O   0  0  0  0  0  0  0  0  0  0  0  0
    5.4195   -3.7048    1.4213 C   0  0  1  0  0  0  0  0  0  0  0  0
    4.4854   -4.4871    0.4583 C   0  0  0  0  0  0  0  0  0  0  0  0
    5.2182   -5.1303   -0.5872 O   0  0  0  0  0  0  0  0  0  0  0  0
    6.2555   -2.5310    0.8334 C   0  0  1  0  0  0  0  0  0  0  0  0
    7.1148   -2.9909   -0.2091 O   0  0  0  0  0  0  0  0  0  0  0  0
    5.3794   -1.3760    0.3242 C   0  0  1  0  0  0  0  0  0  0  0  0
    4.6509   -1.7823   -0.8362 O   0  0  0  0  0  0  0  0  0  0  0  0
    4.4356   -0.9342    1.4687 C   0  0  1  0  0  0  0  0  0  0  0  0
    3.4692    0.0021    0.9738 O   0  0  0  0  0  0  0  0  0  0  0  0
    3.7690   -2.5568    5.5217 C   0  0  2  0  0  0  0  0  0  0  0  0
    2.3187   -2.5035    5.9408 C   0  0  1  0  0  0  0  0  0  0  0  0
    0.9488   -2.0992    5.2346 C   0  0  0  0  0  0  0  0  0  0  0  0
    1.1092   -0.7551    5.9850 C   0  0  2  0  0  0  0  0  0  0  0  0
    0.5814   -1.0467    7.2860 O   0  0  0  0  0  0  0  0  0  0  0  0
    0.9235    0.7331    5.6224 C   0  0  1  0  0  0  0  0  0  0  0  0
    1.6799    1.0039    4.4477 O   0  0  0  0  0  0  0  0  0  0  0  0
    2.6183   -1.0110    5.7279 C   0  0  1  0  0  0  0  0  0  0  0  0
    2.0169    5.6533    5.1726 H   0  0  0  0  0  0  0  0  0  0  0  0
    2.1421    4.7492    6.6561 H   0  0  0  0  0  0  0  0  0  0  0  0
    0.6723    5.6320    6.2951 H   0  0  0  0  0  0  0  0  0  0  0  0
    1.7829    3.3773    4.5489 H   0  0  0  0  0  0  0  0  0  0  0  0
   -3.4039    2.7274    4.4474 H   0  0  0  0  0  0  0  0  0  0  0  0
   -2.8134    4.4017    4.3295 H   0  0  0  0  0  0  0  0  0  0  0  0
   -2.4315    3.4007    5.7335 H   0  0  0  0  0  0  0  0  0  0  0  0
   -3.2566    2.2051    2.2568 H   0  0  0  0  0  0  0  0  0  0  0  0
   -1.2033    1.1030    6.0821 H   0  0  0  0  0  0  0  0  0  0  0  0
   -0.5249    3.1537    6.6653 H   0  0  0  0  0  0  0  0  0  0  0  0
    1.1779    0.7158    8.8154 H   0  0  0  0  0  0  0  0  0  0  0  0
   -1.0566    1.2148    9.2645 H   0  0  0  0  0  0  0  0  0  0  0  0
    1.7251    3.0468    9.4639 H   0  0  0  0  0  0  0  0  0  0  0  0
    0.4145    1.1677   10.9470 H   0  0  0  0  0  0  0  0  0  0  0  0
    0.8437    2.7647   11.5557 H   0  0  0  0  0  0  0  0  0  0  0  0
    0.2652    4.8568    9.5123 H   0  0  0  0  0  0  0  0  0  0  0  0
   -0.5678    4.0788    8.1103 H   0  0  0  0  0  0  0  0  0  0  0  0
    3.2138    2.2603    6.2528 H   0  0  0  0  0  0  0  0  0  0  0  0
    2.9709    2.5273    7.8858 H   0  0  0  0  0  0  0  0  0  0  0  0
    4.0471    0.5330    5.7137 H   0  0  0  0  0  0  0  0  0  0  0  0
    6.3315   -2.5867    6.8280 H   0  0  0  0  0  0  0  0  0  0  0  0
    5.2720   -1.9669    8.0934 H   0  0  0  0  0  0  0  0  0  0  0  0
    6.4161   -0.8724    7.2737 H   0  0  0  0  0  0  0  0  0  0  0  0
    5.4426   -0.3075    4.3264 H   0  0  0  0  0  0  0  0  0  0  0  0
    5.6874   -2.0859    4.2480 H   0  0  0  0  0  0  0  0  0  0  0  0
    2.9713   -2.5470    1.4695 H   0  0  0  0  0  0  0  0  0  0  0  0
    6.1026   -4.3966    1.9048 H   0  0  0  0  0  0  0  0  0  0  0  0
    3.9499   -5.2564    1.0081 H   0  0  0  0  0  0  0  0  0  0  0  0
    3.7454   -3.8170    0.0053 H   0  0  0  0  0  0  0  0  0  0  0  0
    4.5881   -5.4101   -1.2722 H   0  0  0  0  0  0  0  0  0  0  0  0
    6.9182   -2.1502    1.6114 H   0  0  0  0  0  0  0  0  0  0  0  0
    6.5456   -3.4994   -0.8172 H   0  0  0  0  0  0  0  0  0  0  0  0
    6.0462   -0.5431    0.0615 H   0  0  0  0  0  0  0  0  0  0  0  0
    4.0168   -1.0970   -1.0612 H   0  0  0  0  0  0  0  0  0  0  0  0
    5.0731   -0.4074    2.1651 H   0  0  0  0  0  0  0  0  0  0  0  0
    2.8477   -0.4364    0.3781 H   0  0  0  0  0  0  0  0  0  0  0  0
    4.1936   -3.4760    5.1373 H   0  0  0  0  0  0  0  0  0  0  0  0
    2.2081   -2.7935    6.9996 H   0  0  0  0  0  0  0  0  0  0  0  0
    0.8616   -2.0340    4.1336 H   0  0  0  0  0  0  0  0  0  0  0  0
    0.1052   -2.6797    5.5999 H   0  0  0  0  0  0  0  0  0  0  0  0
    1.2548   -0.7623    7.8764 H   0  0  0  0  0  0  0  0  0  0  0  0
    1.1071    0.8455    3.7101 H   0  0  0  0  0  0  0  0  0  0  0  0
  1  2  1  0
  1 48  1  0
  1 49  1  0
  1 50  1  0
  2 11  1  0
  2  3  1  0
  2 51  1  6
  3  4  2  0
  3  5  1  0
  5  6  1  0
  5  7  1  6
  5  9  1  0
  6 52  1  0
  6 53  1  0
  6 54  1  0
  7  8  1  0
  8 55  1  0
  9 10  1  0
 10 45  1  0
 10 11  1  0
 10 56  1  1
 11 12  1  0
 11 57  1  1
 12 45  1  0
 12 13  1  0
 12 21  1  1
 13 14  1  0
 13 15  1  0
 13 58  1  1
 14 59  1  0
 15 20  1  0
 15 16  1  0
 15 60  1  1
 16 17  1  0
 16 61  1  0
 16 62  1  0
 17 18  1  0
 18 19  2  0
 18 20  1  0
 20 63  1  0
 20 64  1  0
 21 22  1  0
 21 65  1  0
 21 66  1  0
 22 23  1  0
 23 47  1  0
 23 24  1  0
 23 67  1  6
 24 40  1  0
 24 25  1  1
 24 26  1  0
 25 68  1  0
 25 69  1  0
 25 70  1  0
 26 27  1  0
 26 71  1  0
 26 72  1  0
 27 47  1  0
 27 28  1  6
 27 40  1  0
 28 29  1  0
 29 38  1  0
 29 30  1  0
 29 73  1  6
 30 31  1  0
 31 32  1  0
 31 34  1  0
 31 74  1  1
 32 33  1  0
 32 75  1  0
 32 76  1  0
 33 77  1  0
 34 35  1  0
 34 36  1  0
 34 78  1  1
 35 79  1  0
 36 37  1  0
 36 38  1  0
 36 80  1  6
 37 81  1  0
 38 39  1  0
 38 82  1  1
 39 83  1  0
 40 41  1  0
 40 84  1  6
 41 47  1  0
 41 42  1  0
 41 85  1  1
 42 43  1  0
 42 86  1  0
 42 87  1  0
 43 44  1  1
 43 45  1  0
 47 43  1  6
 44 88  1  0
 45 46  1  6
 46 89  1  0
M  END
>  <i_m_ct_stereo_status>  (250) 
1

>  <s_m_source_file>  (250) 
/var/tmp/pbs.5083858.sched01/tmp0tb1bq5q/100hrbsavei.sdf

>  <i_m_source_file_index>  (250) 
5

>  <i_lp_mmshare_version>  (250) 
48012

>  <i_f3d_flags>  (250) 
0

>  <s_epik_input>  (250) 
Tz1DKFtDSDJdMSlPW0NIMl1bQ0BIXTFbQ0BASF0oW09IXSlbQ0BdMihbQ0gyXU8zKVtDQEBIXShbQ0BIXShbQ0gzXSlDKD1PKVtDQEBdKE80KShbQ0gzXSlPW09IXSlbQ0BASF00W0NAXTIoW09IXSlbQ0BAXTUoW09IXSlbQ0gyXVtDSF02W0NASF0oW0NAQF03KFtDQEhdM0M1NjgpW0NIM10pQzgoW0NIMl03KU9bQ0BASF05T1tDQEBIXShbQ0gyXVtPSF0pW0NAQEhdKFtPSF0pW0NAQEhdKFtPSF0pW0NASF05W09IXQ==

>  <s_epik_cmdline>  (250) 
J2VwaWtfcHl0aG9uJywgJy1waHQnLCAnMi4wJywgJy1waCcsICc3LjAnLCAnLXRuJywgJzgnLCAnLW1hJywgJzIwMCcsICctaW1hZScsICc8aW5maWxlLm1hZT4nLCAnLW9tYWUnLCAnPG91dGZpbGUubWFlPic=

>  <r_lp_tautomer_probability>  (250) 
1

>  <r_epik_Ionization_Penalty>  (250) 
0.000214566

>  <r_epik_Ionization_Penalty_Charging>  (250) 
0

>  <r_epik_Ionization_Penalty_Neutral>  (250) 
0.000214566

>  <r_epik_State_Penalty>  (250) 
-0

>  <r_epik_Charging_Adjusted_Penalty>  (250) 
0

>  <i_epik_Tot_Q>  (250) 
0

>  <i_epik_Tot_abs_Q>  (250) 
0

>  <s_epik_Chemistry_Notes>  (250) 
This compound has an ester and may undergo hydrolysis at high or low pH. This compound contains an acetal/aminal-like group ( X-CH(R)-Y where X, Y are N, S, or O) that may be acid/base labile, releasing an aldehyde.

>  <s_lp_Force_Field>  (250) 
OPLS3e

>  <r_lp_Energy>  (250) 
235.91

>  <b_lp_Chiralities_Consistent>  (250) 
1

>  <s_lp_Variant>  (250) 
72:0-3

>  <s_i_glide_gridfile>  (250) 
pfpi4k_grid

>  <i_i_glide_lignum>  (250) 
5

>  <i_i_glide_rotatable_bonds>  (250) 
14

>  <r_i_docking_score>  (250) 
-3.40501

>  <r_i_glide_ligand_efficiency>  (250) 
-0.0724471

>  <r_i_glide_ligand_efficiency_sa>  (250) 
-0.261449

>  <r_i_glide_ligand_efficiency_ln>  (250) 
-0.702043

>  <r_i_glide_gscore>  (250) 
-3.40501

>  <r_i_glide_lipo>  (250) 
-0.364473

>  <r_i_glide_hbond>  (250) 
0

>  <r_i_glide_metal>  (250) 
-0

>  <r_i_glide_rewards>  (250) 
-1

>  <r_i_glide_evdw>  (250) 
-22.4111

>  <r_i_glide_ecoul>  (250) 
-7.23871

>  <r_i_glide_erotb>  (250) 
0.122626

>  <r_i_glide_esite>  (250) 
-0.147863

>  <r_i_glide_emodel>  (250) 
-37.8633

>  <r_i_glide_energy>  (250) 
-29.6498

>  <r_i_glide_einternal>  (250) 
12.1756

>  <r_i_glide_intrahb_reward>  (250) 
-1

>  <i_i_glide_confnum>  (250) 
3

>  <i_i_glide_posenum>  (250) 
38

>  <r_i_glide_eff_state_penalty>  (250) 
0

>  <ligand_id>  (250) 
72

>  <original_smiles>  (250) 
CC1C(=O)C(C)(OO)OC2C1C1(C(O)C3COC(=O)C3)COC3C4(C)CC5(OC6OC(CO)C(O)C(O)C6O)C4C4CC(O)(C21O)C435

>  <smiles>  (250) 
[H]OOC1(C([H])([H])[H])OC2([H])C([H])(C([H])(C([H])([H])[H])C1=O)C1(C([H])(O[H])C3([H])C([H])([H])OC(=O)C3([H])[H])C([H])([H])OC3([H])C4(C([H])([H])[H])C([H])([H])C5(OC6([H])OC([H])(C([H])([H])O[H])C([H])(O[H])C([H])(O[H])C6([H])O[H])C4([H])C4([H])C([H])([H])C(O[H])(C21O[H])C345

$$$$
72:2:2
     RDKit          3D

 89 97  0  0  1  0  0  0  0  0999 V2000
    3.7300   -4.1804    7.2244 C   0  0  0  0  0  0  0  0  0  0  0  0
    2.2910   -3.6427    6.9939 C   0  0  2  0  0  0  0  0  0  0  0  0
    1.1999   -4.6460    7.4793 C   0  0  0  0  0  0  0  0  0  0  0  0
    1.4066   -5.4183    8.4196 O   0  0  0  0  0  0  0  0  0  0  0  0
   -0.1753   -4.6898    6.7337 C   0  0  1  0  0  0  0  0  0  0  0  0
   -0.2090   -5.9264    5.7856 C   0  0  0  0  0  0  0  0  0  0  0  0
   -1.2068   -4.8779    7.6899 O   0  0  0  0  0  0  0  0  0  0  0  0
   -2.5035   -4.7253    7.0214 O   0  0  0  0  0  0  0  0  0  0  0  0
   -0.4078   -3.4850    6.0106 O   0  0  0  0  0  0  0  0  0  0  0  0
    0.5803   -3.1126    5.0626 C   0  0  2  0  0  0  0  0  0  0  0  0
    2.0426   -3.3885    5.5253 C   0  0  1  0  0  0  0  0  0  0  0  0
    2.4337   -2.0928    4.7543 C   0  0  2  0  0  0  0  0  0  0  0  0
    2.9673   -2.4770    3.2900 C   0  0  2  0  0  0  0  0  0  0  0  0
    3.4971   -1.3556    2.5890 O   0  0  0  0  0  0  0  0  0  0  0  0
    2.0557   -3.2763    2.2754 C   0  0  2  0  0  0  0  0  0  0  0  0
    1.8781   -4.7824    2.5527 C   0  0  0  0  0  0  0  0  0  0  0  0
    2.8776   -5.4041    1.8008 O   0  0  0  0  0  0  0  0  0  0  0  0
    3.3673   -4.6538    0.8184 C   0  0  0  0  0  0  0  0  0  0  0  0
    4.2503   -4.9828    0.0248 O   0  0  0  0  0  0  0  0  0  0  0  0
    2.6508   -3.3196    0.8369 C   0  0  0  0  0  0  0  0  0  0  0  0
    3.5061   -1.0771    5.2640 C   0  0  0  0  0  0  0  0  0  0  0  0
    3.4373    0.2773    4.6571 O   0  0  0  0  0  0  0  0  0  0  0  0
    2.4327    1.0798    5.2525 C   0  0  1  0  0  0  0  0  0  0  0  0
    2.1588    2.5792    5.3092 C   0  0  2  0  0  0  0  0  0  0  0  0
    3.2289    3.5221    4.7965 C   0  0  0  0  0  0  0  0  0  0  0  0
    1.4967    2.8285    6.6793 C   0  0  0  0  0  0  0  0  0  0  0  0
    0.4914    1.8256    6.0346 C   0  0  1  0  0  0  0  0  0  0  0  0
   -0.8515    1.6674    6.5878 O   0  0  0  0  0  0  0  0  0  0  0  0
   -1.1845    2.3253    7.8109 C   0  0  2  0  0  0  0  0  0  0  0  0
   -1.0824    1.5926    9.0243 O   0  0  0  0  0  0  0  0  0  0  0  0
   -1.3042    2.3829   10.2609 C   0  0  1  0  0  0  0  0  0  0  0  0
   -0.1347    3.4300   10.4381 C   0  0  0  0  0  0  0  0  0  0  0  0
   -0.2328    4.2148   11.6259 O   0  0  0  0  0  0  0  0  0  0  0  0
   -2.7439    2.9839   10.1995 C   0  0  1  0  0  0  0  0  0  0  0  0
   -3.0827    3.7287   11.3524 O   0  0  0  0  0  0  0  0  0  0  0  0
   -2.9580    3.8207    8.9206 C   0  0  1  0  0  0  0  0  0  0  0  0
   -2.2301    5.0505    8.9628 O   0  0  0  0  0  0  0  0  0  0  0  0
   -2.5693    2.9287    7.6961 C   0  0  1  0  0  0  0  0  0  0  0  0
   -2.5986    3.6901    6.5055 O   0  0  0  0  0  0  0  0  0  0  0  0
    0.6623    2.7392    4.8434 C   0  0  2  0  0  0  0  0  0  0  0  0
    0.1442    1.6507    3.9304 C   0  0  1  0  0  0  0  0  0  0  0  0
   -0.8134    0.3974    4.0957 C   0  0  0  0  0  0  0  0  0  0  0  0
    0.4906   -0.4333    4.2159 C   0  0  2  0  0  0  0  0  0  0  0  0
    0.8931   -0.6392    2.8792 O   0  0  0  0  0  0  0  0  0  0  0  0
    0.9426   -1.6124    5.1346 C   0  0  1  0  0  0  0  0  0  0  0  0
    0.7424   -1.2228    6.4989 O   0  0  0  0  0  0  0  0  0  0  0  0
    1.0134    0.8369    4.9142 C   0  0  1  0  0  0  0  0  0  0  0  0
    3.9490   -4.1949    8.2927 H   0  0  0  0  0  0  0  0  0  0  0  0
    4.4692   -3.5347    6.7593 H   0  0  0  0  0  0  0  0  0  0  0  0
    3.9099   -5.1895    6.8476 H   0  0  0  0  0  0  0  0  0  0  0  0
    2.1796   -2.7328    7.5909 H   0  0  0  0  0  0  0  0  0  0  0  0
   -1.1802   -6.0670    5.3141 H   0  0  0  0  0  0  0  0  0  0  0  0
    0.0195   -6.8543    6.3163 H   0  0  0  0  0  0  0  0  0  0  0  0
    0.5185   -5.8490    4.9789 H   0  0  0  0  0  0  0  0  0  0  0  0
   -2.6866   -3.8166    7.1734 H   0  0  0  0  0  0  0  0  0  0  0  0
    0.2698   -3.4122    4.0685 H   0  0  0  0  0  0  0  0  0  0  0  0
    2.5151   -4.2641    5.0616 H   0  0  0  0  0  0  0  0  0  0  0  0
    3.8465   -3.1006    3.4237 H   0  0  0  0  0  0  0  0  0  0  0  0
    2.7644   -0.8092    2.3285 H   0  0  0  0  0  0  0  0  0  0  0  0
    1.0679   -2.8299    2.1857 H   0  0  0  0  0  0  0  0  0  0  0  0
    2.0603   -5.1084    3.5842 H   0  0  0  0  0  0  0  0  0  0  0  0
    0.8790   -5.1144    2.2929 H   0  0  0  0  0  0  0  0  0  0  0  0
    1.8616   -3.3044    0.0834 H   0  0  0  0  0  0  0  0  0  0  0  0
    3.3549   -2.5212    0.5788 H   0  0  0  0  0  0  0  0  0  0  0  0
    3.4721   -1.0399    6.3565 H   0  0  0  0  0  0  0  0  0  0  0  0
    4.4995   -1.4692    5.0574 H   0  0  0  0  0  0  0  0  0  0  0  0
    2.6145    0.8130    6.3022 H   0  0  0  0  0  0  0  0  0  0  0  0
    2.8920    4.5631    4.8732 H   0  0  0  0  0  0  0  0  0  0  0  0
    3.4443    3.3295    3.7509 H   0  0  0  0  0  0  0  0  0  0  0  0
    4.1369    3.4166    5.3791 H   0  0  0  0  0  0  0  0  0  0  0  0
    2.0282    2.4183    7.5386 H   0  0  0  0  0  0  0  0  0  0  0  0
    1.1630    3.8565    6.8392 H   0  0  0  0  0  0  0  0  0  0  0  0
   -0.4793    3.1307    7.9182 H   0  0  0  0  0  0  0  0  0  0  0  0
   -1.2556    1.6872   11.1151 H   0  0  0  0  0  0  0  0  0  0  0  0
    0.8290    2.9203   10.4305 H   0  0  0  0  0  0  0  0  0  0  0  0
   -0.0706    4.1483    9.6240 H   0  0  0  0  0  0  0  0  0  0  0  0
   -0.3940    3.6344   12.3828 H   0  0  0  0  0  0  0  0  0  0  0  0
   -3.4431    2.1527   10.1852 H   0  0  0  0  0  0  0  0  0  0  0  0
   -2.9943    3.1573   12.1465 H   0  0  0  0  0  0  0  0  0  0  0  0
   -4.0204    4.0635    8.8551 H   0  0  0  0  0  0  0  0  0  0  0  0
   -2.4594    5.5708    8.1886 H   0  0  0  0  0  0  0  0  0  0  0  0
   -3.2881    2.1310    7.5797 H   0  0  0  0  0  0  0  0  0  0  0  0
   -2.3943    3.1184    5.7337 H   0  0  0  0  0  0  0  0  0  0  0  0
    0.1644    3.7075    4.8129 H   0  0  0  0  0  0  0  0  0  0  0  0
    0.6247    1.7323    2.9539 H   0  0  0  0  0  0  0  0  0  0  0  0
   -1.5113    0.3811    4.9355 H   0  0  0  0  0  0  0  0  0  0  0  0
   -1.3755    0.1861    3.1734 H   0  0  0  0  0  0  0  0  0  0  0  0
    0.1930   -1.1220    2.4633 H   0  0  0  0  0  0  0  0  0  0  0  0
    1.4406   -0.6214    6.6931 H   0  0  0  0  0  0  0  0  0  0  0  0
  1  2  1  0
  1 48  1  0
  1 49  1  0
  1 50  1  0
  2 11  1  0
  2  3  1  0
  2 51  1  1
  3  4  2  0
  3  5  1  0
  5  6  1  0
  5  7  1  1
  5  9  1  0
  6 52  1  0
  6 53  1  0
  6 54  1  0
  7  8  1  0
  8 55  1  0
  9 10  1  0
 10 45  1  0
 10 11  1  0
 10 56  1  6
 11 12  1  0
 11 57  1  6
 12 45  1  0
 12 13  1  0
 12 21  1  1
 13 14  1  0
 13 15  1  0
 13 58  1  1
 14 59  1  0
 15 20  1  0
 15 16  1  0
 15 60  1  6
 16 17  1  0
 16 61  1  0
 16 62  1  0
 17 18  1  0
 18 19  2  0
 18 20  1  0
 20 63  1  0
 20 64  1  0
 21 22  1  0
 21 65  1  0
 21 66  1  0
 22 23  1  0
 23 47  1  0
 23 24  1  0
 23 67  1  1
 24 40  1  0
 24 25  1  6
 24 26  1  0
 25 68  1  0
 25 69  1  0
 25 70  1  0
 26 27  1  0
 26 71  1  0
 26 72  1  0
 27 47  1  0
 27 28  1  1
 27 40  1  0
 28 29  1  0
 29 38  1  0
 29 30  1  0
 29 73  1  1
 30 31  1  0
 31 32  1  0
 31 34  1  0
 31 74  1  1
 32 33  1  0
 32 75  1  0
 32 76  1  0
 33 77  1  0
 34 35  1  0
 34 36  1  0
 34 78  1  6
 35 79  1  0
 36 37  1  0
 36 38  1  0
 36 80  1  6
 37 81  1  0
 38 39  1  0
 38 82  1  6
 39 83  1  0
 40 41  1  0
 40 84  1  1
 41 47  1  0
 41 42  1  0
 41 85  1  6
 42 43  1  0
 42 86  1  0
 42 87  1  0
 43 44  1  6
 43 45  1  0
 47 43  1  1
 44 88  1  0
 45 46  1  1
 46 89  1  0
M  END
>  <i_m_ct_stereo_status>  (251) 
1

>  <s_m_source_file>  (251) 
/var/tmp/pbs.5083858.sched01/tmp0tb1bq5q/100hrbsavei.sdf

>  <i_m_source_file_index>  (251) 
5

>  <i_lp_mmshare_version>  (251) 
48012

>  <i_f3d_flags>  (251) 
0

>  <s_epik_input>  (251) 
Tz1DKFtDSDJdMSlPW0NIMl1bQ0BIXTFbQ0BASF0oW09IXSlbQ0BdMihbQ0gyXU8zKVtDQEBIXShbQ0BIXShbQ0gzXSlDKD1PKVtDQEBdKE80KShbQ0gzXSlPW09IXSlbQ0BASF00W0NAXTIoW09IXSlbQ0BAXTUoW09IXSlbQ0gyXVtDSF02W0NASF0oW0NAQF03KFtDQEhdM0M1NjgpW0NIM10pQzgoW0NIMl03KU9bQ0BASF05T1tDQEBIXShbQ0gyXVtPSF0pW0NAQEhdKFtPSF0pW0NAQEhdKFtPSF0pW0NASF05W09IXQ==

>  <s_epik_cmdline>  (251) 
J2VwaWtfcHl0aG9uJywgJy1waHQnLCAnMi4wJywgJy1waCcsICc3LjAnLCAnLXRuJywgJzgnLCAnLW1hJywgJzIwMCcsICctaW1hZScsICc8aW5maWxlLm1hZT4nLCAnLW9tYWUnLCAnPG91dGZpbGUubWFlPic=

>  <r_lp_tautomer_probability>  (251) 
1

>  <r_epik_Ionization_Penalty>  (251) 
0.000214566

>  <r_epik_Ionization_Penalty_Charging>  (251) 
0

>  <r_epik_Ionization_Penalty_Neutral>  (251) 
0.000214566

>  <r_epik_State_Penalty>  (251) 
-0

>  <r_epik_Charging_Adjusted_Penalty>  (251) 
0

>  <i_epik_Tot_Q>  (251) 
0

>  <i_epik_Tot_abs_Q>  (251) 
0

>  <s_epik_Chemistry_Notes>  (251) 
This compound has an ester and may undergo hydrolysis at high or low pH. This compound contains an acetal/aminal-like group ( X-CH(R)-Y where X, Y are N, S, or O) that may be acid/base labile, releasing an aldehyde.

>  <s_lp_Force_Field>  (251) 
OPLS3e

>  <r_lp_Energy>  (251) 
235.91

>  <b_lp_Chiralities_Consistent>  (251) 
1

>  <s_lp_Variant>  (251) 
72:0-3

>  <s_i_glide_gridfile>  (251) 
pfpi4k_grid

>  <i_i_glide_lignum>  (251) 
5

>  <i_i_glide_rotatable_bonds>  (251) 
14

>  <r_i_docking_score>  (251) 
-3.24662

>  <r_i_glide_ligand_efficiency>  (251) 
-0.069077

>  <r_i_glide_ligand_efficiency_sa>  (251) 
-0.249287

>  <r_i_glide_ligand_efficiency_ln>  (251) 
-0.669386

>  <r_i_glide_gscore>  (251) 
-3.24662

>  <r_i_glide_lipo>  (251) 
-0.146639

>  <r_i_glide_hbond>  (251) 
0

>  <r_i_glide_metal>  (251) 
-0

>  <r_i_glide_rewards>  (251) 
-0.5

>  <r_i_glide_evdw>  (251) 
-25.4024

>  <r_i_glide_ecoul>  (251) 
-10.1584

>  <r_i_glide_erotb>  (251) 
0.122626

>  <r_i_glide_esite>  (251) 
-0.0190025

>  <r_i_glide_emodel>  (251) 
-40.9263

>  <r_i_glide_energy>  (251) 
-35.5608

>  <r_i_glide_einternal>  (251) 
7.37106

>  <r_i_glide_intrahb_reward>  (251) 
-0.5

>  <i_i_glide_confnum>  (251) 
1

>  <i_i_glide_posenum>  (251) 
11

>  <r_i_glide_eff_state_penalty>  (251) 
0

>  <ligand_id>  (251) 
72

>  <original_smiles>  (251) 
CC1C(=O)C(C)(OO)OC2C1C1(C(O)C3COC(=O)C3)COC3C4(C)CC5(OC6OC(CO)C(O)C(O)C6O)C4C4CC(O)(C21O)C435

>  <smiles>  (251) 
[H]OOC1(C([H])([H])[H])OC2([H])C([H])(C([H])(C([H])([H])[H])C1=O)C1(C([H])(O[H])C3([H])C([H])([H])OC(=O)C3([H])[H])C([H])([H])OC3([H])C4(C([H])([H])[H])C([H])([H])C5(OC6([H])OC([H])(C([H])([H])O[H])C([H])(O[H])C([H])(O[H])C6([H])O[H])C4([H])C4([H])C([H])([H])C(O[H])(C21O[H])C345

$$$$
73:0:0
     RDKit          3D

 94101  0  0  1  0  0  0  0  0999 V2000
    3.3080   -5.7263    4.9998 C   0  0  0  0  0  0  0  0  0  0  0  0
    3.3401   -4.3872    4.2045 C   0  0  2  0  0  0  0  0  0  0  0  0
    2.0172   -3.5060    4.4360 C   0  0  0  0  0  0  0  0  0  0  0  0
    0.7694   -4.3007    3.9740 C   0  0  0  0  0  0  0  0  0  0  0  0
    1.7680   -3.3225    5.9464 C   0  0  0  0  0  0  0  0  0  0  0  0
    1.8696   -2.1009    3.6999 C   0  0  2  0  0  0  0  0  0  0  0  0
    2.1737   -2.2179    2.1850 C   0  0  0  0  0  0  0  0  0  0  0  0
    3.6978   -1.9778    2.0358 C   0  0  2  0  0  0  0  0  0  0  0  0
    3.8944   -1.1776    0.8789 O   0  0  0  0  0  0  0  0  0  0  0  0
    4.4341   -3.3811    1.8767 C   0  0  2  0  0  0  0  0  0  0  0  0
    5.8049   -3.1071    2.1310 O   0  0  0  0  0  0  0  0  0  0  0  0
    4.3824   -4.0232    0.4573 C   0  0  0  0  0  0  0  0  0  0  0  0
    4.1865   -5.5372    0.7239 C   0  0  2  0  0  0  0  0  0  0  0  0
    3.0504   -5.4452    1.7264 C   0  0  1  0  0  0  0  0  0  0  0  0
    2.5274   -6.6877    2.1910 O   0  0  0  0  0  0  0  0  0  0  0  0
    1.2215   -7.0326    2.0895 C   0  0  0  0  0  0  0  0  0  0  0  0
    0.3555   -6.4081    1.4534 O   0  0  0  0  0  0  0  0  0  0  0  0
    0.9539   -8.2401    2.8878 C   0  0  0  0  0  0  0  0  0  0  0  0
    1.8674   -9.1703    3.4964 C   0  0  0  0  0  0  0  0  0  0  0  0
    1.1580  -10.1344    4.1297 C   0  0  0  0  0  0  0  0  0  0  0  0
   -0.1692   -9.8146    3.9974 N   0  0  0  0  0  0  0  0  0  0  0  0
   -0.3143   -8.6655    3.2420 C   0  0  0  0  0  0  0  0  0  0  0  0
    3.9112   -4.6206    2.7350 C   0  0  2  0  0  0  0  0  0  0  0  0
    5.0839   -5.4806    2.8107 O   0  0  0  0  0  0  0  0  0  0  0  0
    5.3520   -6.1246    1.5560 C   0  0  0  0  0  0  0  0  0  0  0  0
    5.2807   -7.6541    1.7697 C   0  0  0  0  0  0  0  0  0  0  0  0
    6.7755   -5.8189    1.0173 C   0  0  0  0  0  0  0  0  0  0  0  0
    4.0340   -1.0979    3.3155 C   0  0  1  0  0  0  0  0  0  0  0  0
    4.8563   -1.8310    4.2185 O   0  0  0  0  0  0  0  0  0  0  0  0
    4.7264    0.2713    3.3560 C   0  0  0  0  0  0  0  0  0  0  0  0
    4.4125    0.7593    4.7670 C   0  0  1  0  0  0  0  0  0  0  0  0
    3.1990    1.4694    5.0080 O   0  0  0  0  0  0  0  0  0  0  0  0
    3.1104    0.0496    5.1874 C   0  0  2  0  0  0  0  0  0  0  0  0
    2.8853   -0.4008    6.6108 C   0  0  0  0  0  0  0  0  0  0  0  0
    2.6612   -0.7517    3.9366 C   0  0  2  0  0  0  0  0  0  0  0  0
    1.9818    0.2496    3.0821 O   0  0  0  0  0  0  0  0  0  0  0  0
    0.8215    0.9289    3.5563 C   0  0  2  0  0  0  0  0  0  0  0  0
   -0.3280    0.1264    3.5677 O   0  0  0  0  0  0  0  0  0  0  0  0
   -1.4755    0.7401    4.1740 C   0  0  1  0  0  0  0  0  0  0  0  0
   -1.2730    0.9931    5.7057 C   0  0  0  0  0  0  0  0  0  0  0  0
   -1.0975   -0.2431    6.3850 O   0  0  0  0  0  0  0  0  0  0  0  0
   -1.8291    1.9736    3.3262 C   0  0  1  0  0  0  0  0  0  0  0  0
   -3.0086    2.6267    3.7624 O   0  0  0  0  0  0  0  0  0  0  0  0
   -0.6767    2.9697    3.2014 C   0  0  1  0  0  0  0  0  0  0  0  0
   -0.4153    3.6210    4.4530 O   0  0  0  0  0  0  0  0  0  0  0  0
    0.5710    2.2124    2.7112 C   0  0  1  0  0  0  0  0  0  0  0  0
    1.7107    3.0596    2.7904 O   0  0  0  0  0  0  0  0  0  0  0  0
   -0.9550  -10.3523    4.4054 H   0  0  0  0  0  0  0  0  0  0  0  0
    2.5256   -6.4150    4.6856 H   0  0  0  0  0  0  0  0  0  0  0  0
    3.1824   -5.5589    6.0713 H   0  0  0  0  0  0  0  0  0  0  0  0
    4.2538   -6.2651    4.9082 H   0  0  0  0  0  0  0  0  0  0  0  0
    4.1433   -3.9236    4.7626 H   0  0  0  0  0  0  0  0  0  0  0  0
   -0.1496   -3.7692    4.2485 H   0  0  0  0  0  0  0  0  0  0  0  0
    0.6826   -5.2744    4.4568 H   0  0  0  0  0  0  0  0  0  0  0  0
    0.7665   -4.4779    2.9000 H   0  0  0  0  0  0  0  0  0  0  0  0
    0.9840   -2.5817    6.1170 H   0  0  0  0  0  0  0  0  0  0  0  0
    2.6772   -3.0447    6.4714 H   0  0  0  0  0  0  0  0  0  0  0  0
    1.4100   -4.2428    6.4159 H   0  0  0  0  0  0  0  0  0  0  0  0
    0.8179   -1.8584    3.8053 H   0  0  0  0  0  0  0  0  0  0  0  0
    1.7941   -3.0981    1.7067 H   0  0  0  0  0  0  0  0  0  0  0  0
    1.6111   -1.4661    1.6314 H   0  0  0  0  0  0  0  0  0  0  0  0
    3.2877   -1.4573    0.2060 H   0  0  0  0  0  0  0  0  0  0  0  0
    5.8378   -2.6629    2.9728 H   0  0  0  0  0  0  0  0  0  0  0  0
    3.5233   -3.6553   -0.1026 H   0  0  0  0  0  0  0  0  0  0  0  0
    5.2565   -3.7930   -0.1494 H   0  0  0  0  0  0  0  0  0  0  0  0
    3.9523   -6.1100   -0.1709 H   0  0  0  0  0  0  0  0  0  0  0  0
    2.2376   -4.9041    1.2528 H   0  0  0  0  0  0  0  0  0  0  0  0
    2.9476   -9.1275    3.4641 H   0  0  0  0  0  0  0  0  0  0  0  0
    1.4771  -11.0193    4.6682 H   0  0  0  0  0  0  0  0  0  0  0  0
   -1.2802   -8.2318    3.0456 H   0  0  0  0  0  0  0  0  0  0  0  0
    4.9984   -8.1672    0.8507 H   0  0  0  0  0  0  0  0  0  0  0  0
    4.5767   -7.9269    2.5524 H   0  0  0  0  0  0  0  0  0  0  0  0
    6.2456   -8.0587    2.0795 H   0  0  0  0  0  0  0  0  0  0  0  0
    6.9601   -6.3347    0.0791 H   0  0  0  0  0  0  0  0  0  0  0  0
    7.5341   -6.1498    1.7290 H   0  0  0  0  0  0  0  0  0  0  0  0
    6.9776   -4.7706    0.8178 H   0  0  0  0  0  0  0  0  0  0  0  0
    4.3451   -2.5716    4.5151 H   0  0  0  0  0  0  0  0  0  0  0  0
    5.7930    0.2091    3.1666 H   0  0  0  0  0  0  0  0  0  0  0  0
    4.2737    0.9323    2.6252 H   0  0  0  0  0  0  0  0  0  0  0  0
    5.2601    0.9287    5.4523 H   0  0  0  0  0  0  0  0  0  0  0  0
    3.5732   -1.2113    6.8680 H   0  0  0  0  0  0  0  0  0  0  0  0
    1.8485   -0.6827    6.7795 H   0  0  0  0  0  0  0  0  0  0  0  0
    3.1109    0.4216    7.2887 H   0  0  0  0  0  0  0  0  0  0  0  0
    1.0073    1.1821    4.6036 H   0  0  0  0  0  0  0  0  0  0  0  0
   -2.2685    0.0124    4.0821 H   0  0  0  0  0  0  0  0  0  0  0  0
   -0.4234    1.6469    5.9505 H   0  0  0  0  0  0  0  0  0  0  0  0
   -2.1610    1.4614    6.1526 H   0  0  0  0  0  0  0  0  0  0  0  0
   -0.2397   -0.6161    6.1364 H   0  0  0  0  0  0  0  0  0  0  0  0
   -2.0266    1.6265    2.3209 H   0  0  0  0  0  0  0  0  0  0  0  0
   -3.7430    1.9981    3.6911 H   0  0  0  0  0  0  0  0  0  0  0  0
   -0.9832    3.7097    2.4762 H   0  0  0  0  0  0  0  0  0  0  0  0
    0.3658    4.1803    4.3383 H   0  0  0  0  0  0  0  0  0  0  0  0
    0.4500    1.9499    1.6635 H   0  0  0  0  0  0  0  0  0  0  0  0
    1.5811    3.7927    2.1649 H   0  0  0  0  0  0  0  0  0  0  0  0
  1  2  1  0
  1 49  1  0
  1 50  1  0
  1 51  1  0
  2 23  1  0
  2  3  1  0
  2 52  1  1
  3  4  1  0
  3  5  1  0
  3  6  1  0
  4 53  1  0
  4 54  1  0
  4 55  1  0
  5 56  1  0
  5 57  1  0
  5 58  1  0
  6 35  1  0
  6  7  1  0
  6 59  1  6
  7  8  1  0
  7 60  1  0
  7 61  1  0
  8  9  1  6
  8 10  1  0
  8 28  1  0
  9 62  1  0
 10 23  1  0
 10 11  1  1
 10 12  1  0
 11 63  1  0
 12 13  1  0
 12 64  1  0
 12 65  1  0
 13 25  1  0
 13 14  1  0
 13 66  1  6
 14 15  1  0
 14 23  1  0
 14 67  1  6
 15 16  1  0
 16 17  2  0
 16 18  1  0
 18 22  2  0
 18 19  1  0
 19 20  2  0
 19 68  1  0
 20 21  1  0
 20 69  1  0
 21 48  1  0
 21 22  1  0
 22 70  1  0
 23 24  1  1
 24 25  1  0
 25 26  1  0
 25 27  1  0
 26 71  1  0
 26 72  1  0
 26 73  1  0
 27 74  1  0
 27 75  1  0
 27 76  1  0
 28 35  1  0
 28 29  1  1
 28 30  1  0
 29 77  1  0
 30 31  1  0
 30 78  1  0
 30 79  1  0
 31 33  1  0
 31 32  1  0
 31 80  1  1
 32 33  1  0
 33 34  1  1
 33 35  1  0
 34 81  1  0
 34 82  1  0
 34 83  1  0
 35 36  1  6
 36 37  1  0
 37 46  1  0
 37 38  1  0
 37 84  1  1
 38 39  1  0
 39 40  1  0
 39 42  1  0
 39 85  1  1
 40 41  1  0
 40 86  1  0
 40 87  1  0
 41 88  1  0
 42 43  1  0
 42 44  1  0
 42 89  1  6
 43 90  1  0
 44 45  1  0
 44 46  1  0
 44 91  1  6
 45 92  1  0
 46 47  1  0
 46 93  1  6
 47 94  1  0
M  END
>  <i_m_ct_stereo_status>  (252) 
1

>  <s_m_source_file>  (252) 
/var/tmp/pbs.5083858.sched01/tmpnl70wwuf/105f9iu2hp5.sdf

>  <i_m_source_file_index>  (252) 
1

>  <i_lp_mmshare_version>  (252) 
48012

>  <i_f3d_flags>  (252) 
0

>  <s_epik_input>  (252) 
W09IXVtDQEBIXTFbQ0BIXShbT0hdKVtDQEhdKFtPSF0pW0NASF0oW0NIMl1bT0hdKU9bQ0BIXTFPW0NAQF0oW0NAQF0yKFtDSDNdKVtDQEhdKE8yKVtDSDJdMykoW0NAQEhdKFtDSDJdNClDKFtDSDNdKShbQ0gzXSlbQ0BIXTVbQ0gzXSlbQ0BAXTMoW09IXSlbQ0BAXTQoW09IXSlbQ0BdKFtDQEBdNTY3KShbT0hdKVtDSDJdW0NAQEhdKEMoTzcpKFtDSDNdKVtDSDNdKVtDQEhdNk9DKD1PKWM4W2NIXVtjSF1bbkhdW2NIXTg=

>  <s_epik_cmdline>  (252) 
J2VwaWtfcHl0aG9uJywgJy1waHQnLCAnMi4wJywgJy1waCcsICc3LjAnLCAnLXRuJywgJzgnLCAnLW1hJywgJzIwMCcsICctaW1hZScsICc8aW5maWxlLm1hZT4nLCAnLW9tYWUnLCAnPG91dGZpbGUubWFlPic=

>  <r_lp_tautomer_probability>  (252) 
1

>  <r_epik_Ionization_Penalty>  (252) 
3.19215e-06

>  <r_epik_Ionization_Penalty_Charging>  (252) 
0

>  <r_epik_Ionization_Penalty_Neutral>  (252) 
3.19215e-06

>  <r_epik_State_Penalty>  (252) 
-0

>  <r_epik_Charging_Adjusted_Penalty>  (252) 
0

>  <i_epik_Tot_Q>  (252) 
0

>  <i_epik_Tot_abs_Q>  (252) 
0

>  <s_epik_Chemistry_Notes>  (252) 
This compound has an ester and may undergo hydrolysis at high or low pH. This compound contains an acetal/aminal-like group ( X-CH(R)-Y where X, Y are N, S, or O) that may be acid/base labile, releasing an aldehyde.

>  <s_lp_Force_Field>  (252) 
OPLS3e

>  <r_lp_Energy>  (252) 
141.68

>  <b_lp_Chiralities_Consistent>  (252) 
1

>  <s_lp_Variant>  (252) 
73:0-1

>  <s_i_glide_gridfile>  (252) 
pfpi4k_grid

>  <i_i_glide_lignum>  (252) 
1

>  <i_i_glide_rotatable_bonds>  (252) 
13

>  <r_i_docking_score>  (252) 
-5.20561

>  <r_i_glide_ligand_efficiency>  (252) 
-0.110758

>  <r_i_glide_ligand_efficiency_sa>  (252) 
-0.399705

>  <r_i_glide_ligand_efficiency_ln>  (252) 
-1.07329

>  <r_i_glide_gscore>  (252) 
-5.20561

>  <r_i_glide_lipo>  (252) 
-0.379617

>  <r_i_glide_hbond>  (252) 
-0.317144

>  <r_i_glide_metal>  (252) 
-0

>  <r_i_glide_rewards>  (252) 
-0.5

>  <r_i_glide_evdw>  (252) 
-30.6817

>  <r_i_glide_ecoul>  (252) 
-16.5156

>  <r_i_glide_erotb>  (252) 
0.129069

>  <r_i_glide_esite>  (252) 
-0.126488

>  <r_i_glide_emodel>  (252) 
-66.5385

>  <r_i_glide_energy>  (252) 
-47.1973

>  <r_i_glide_einternal>  (252) 
4.66239

>  <r_i_glide_intrahb_reward>  (252) 
-0.5

>  <i_i_glide_confnum>  (252) 
10

>  <i_i_glide_posenum>  (252) 
28

>  <r_i_glide_eff_state_penalty>  (252) 
0

>  <ligand_id>  (252) 
73

>  <original_smiles>  (252) 
CC1C(C)(C)C2CC(O)(C3(O)CC4C(OC(=O)c5cc[nH]c5)C13OC4(C)C)C1(O)CC3OC3(C)C21OC1OC(CO)C(O)C(O)C1O

>  <smiles>  (252) 
[H]OC([H])([H])C1([H])OC([H])(OC23C4([H])C([H])([H])C(O[H])(C5(O[H])C([H])([H])C6([H])C([H])(OC(=O)c7c([H])c([H])n([H])c7[H])C5(OC6(C([H])([H])[H])C([H])([H])[H])C([H])(C([H])([H])[H])C4(C([H])([H])[H])C([H])([H])[H])C2(O[H])C([H])([H])C2([H])OC23C([H])([H])[H])C([H])(O[H])C([H])(O[H])C1([H])O[H]

$$$$
73:0:1
     RDKit          3D

 94101  0  0  1  0  0  0  0  0999 V2000
    2.8960   -5.2812    5.3165 C   0  0  0  0  0  0  0  0  0  0  0  0
    2.9889   -3.9484    4.5229 C   0  0  2  0  0  0  0  0  0  0  0  0
    1.7058   -3.0229    4.7613 C   0  0  0  0  0  0  0  0  0  0  0  0
    0.4289   -3.7914    4.3268 C   0  0  0  0  0  0  0  0  0  0  0  0
    1.4850   -2.8157    6.2735 C   0  0  0  0  0  0  0  0  0  0  0  0
    1.6237   -1.6018    4.0478 C   0  0  2  0  0  0  0  0  0  0  0  0
    1.9010   -1.7202    2.5261 C   0  0  0  0  0  0  0  0  0  0  0  0
    3.4317   -1.5571    2.3733 C   0  0  2  0  0  0  0  0  0  0  0  0
    3.7022   -0.7896    1.2097 O   0  0  0  0  0  0  0  0  0  0  0  0
    4.0931   -2.9837    2.2005 C   0  0  2  0  0  0  0  0  0  0  0  0
    5.4681   -2.7348    2.4255 O   0  0  0  0  0  0  0  0  0  0  0  0
    3.9926   -3.6147    0.7731 C   0  0  0  0  0  0  0  0  0  0  0  0
    3.7252   -5.1189    1.0326 C   0  0  2  0  0  0  0  0  0  0  0  0
    2.6219   -4.9827    2.0626 C   0  0  1  0  0  0  0  0  0  0  0  0
    2.0501   -6.1979    2.5122 O   0  0  0  0  0  0  0  0  0  0  0  0
    0.9660   -6.7282    1.9445 C   0  0  0  0  0  0  0  0  0  0  0  0
    0.3338   -6.2611    1.0175 O   0  0  0  0  0  0  0  0  0  0  0  0
    0.6033   -7.9968    2.6277 C   0  0  0  0  0  0  0  0  0  0  0  0
    1.3533   -8.7544    3.5978 C   0  0  0  0  0  0  0  0  0  0  0  0
    0.6201   -9.8482    3.9595 C   0  0  0  0  0  0  0  0  0  0  0  0
   -0.5715   -9.7754    3.2741 N   0  0  0  0  0  0  0  0  0  0  0  0
   -0.6002   -8.6471    2.4722 C   0  0  0  0  0  0  0  0  0  0  0  0
    3.5388   -4.2070    3.0591 C   0  0  2  0  0  0  0  0  0  0  0  0
    4.6711   -5.1174    3.1036 O   0  0  0  0  0  0  0  0  0  0  0  0
    4.8663   -5.7757    1.8446 C   0  0  0  0  0  0  0  0  0  0  0  0
    4.7117   -7.3011    2.0604 C   0  0  0  0  0  0  0  0  0  0  0  0
    6.2901   -5.5576    1.2822 C   0  0  0  0  0  0  0  0  0  0  0  0
    3.8113   -0.6929    3.6596 C   0  0  1  0  0  0  0  0  0  0  0  0
    4.5963   -1.4351    4.5723 O   0  0  0  0  0  0  0  0  0  0  0  0
    4.5827    0.6378    3.6839 C   0  0  0  0  0  0  0  0  0  0  0  0
    4.2935    1.1622    5.0889 C   0  0  1  0  0  0  0  0  0  0  0  0
    3.1191    1.9232    5.3374 O   0  0  0  0  0  0  0  0  0  0  0  0
    2.9719    0.5045    5.5243 C   0  0  2  0  0  0  0  0  0  0  0  0
    2.7638    0.0584    6.9493 C   0  0  0  0  0  0  0  0  0  0  0  0
    2.4785   -0.2879    4.2860 C   0  0  2  0  0  0  0  0  0  0  0  0
    1.8734    0.7401    3.4300 O   0  0  0  0  0  0  0  0  0  0  0  0
    0.6841    1.3921    3.8772 C   0  0  2  0  0  0  0  0  0  0  0  0
   -0.4581    0.5763    3.8205 O   0  0  0  0  0  0  0  0  0  0  0  0
   -1.6476    1.1415    4.3730 C   0  0  1  0  0  0  0  0  0  0  0  0
   -1.5315    1.3423    5.9119 C   0  0  0  0  0  0  0  0  0  0  0  0
   -1.3524    0.0926    6.5425 O   0  0  0  0  0  0  0  0  0  0  0  0
   -1.9994    2.3769    3.5481 C   0  0  1  0  0  0  0  0  0  0  0  0
   -3.2055    2.9506    4.0195 O   0  0  0  0  0  0  0  0  0  0  0  0
   -0.8629    3.4073    3.5151 C   0  0  1  0  0  0  0  0  0  0  0  0
   -0.7468    4.0600    4.7881 O   0  0  0  0  0  0  0  0  0  0  0  0
    0.4433    2.6951    3.0696 C   0  0  1  0  0  0  0  0  0  0  0  0
    1.5676    3.5679    3.2172 O   0  0  0  0  0  0  0  0  0  0  0  0
   -1.3383  -10.4226    3.4461 H   0  0  0  0  0  0  0  0  0  0  0  0
    2.0745   -5.9230    5.0031 H   0  0  0  0  0  0  0  0  0  0  0  0
    2.7822   -5.1108    6.3890 H   0  0  0  0  0  0  0  0  0  0  0  0
    3.8086   -5.8720    5.2188 H   0  0  0  0  0  0  0  0  0  0  0  0
    3.8058   -3.5016    5.0658 H   0  0  0  0  0  0  0  0  0  0  0  0
   -0.4740   -3.2045    4.5039 H   0  0  0  0  0  0  0  0  0  0  0  0
    0.2732   -4.7252    4.8644 H   0  0  0  0  0  0  0  0  0  0  0  0
    0.4331   -4.0394    3.2730 H   0  0  0  0  0  0  0  0  0  0  0  0
    0.7546   -2.0295    6.4571 H   0  0  0  0  0  0  0  0  0  0  0  0
    2.4145   -2.5792    6.7782 H   0  0  0  0  0  0  0  0  0  0  0  0
    1.0879   -3.7061    6.7606 H   0  0  0  0  0  0  0  0  0  0  0  0
    0.5888   -1.3325    4.1908 H   0  0  0  0  0  0  0  0  0  0  0  0
    1.4613   -2.5845    2.0653 H   0  0  0  0  0  0  0  0  0  0  0  0
    1.3793   -0.9339    1.9814 H   0  0  0  0  0  0  0  0  0  0  0  0
    3.1003   -1.0564    0.5222 H   0  0  0  0  0  0  0  0  0  0  0  0
    5.7310   -2.0816    1.7877 H   0  0  0  0  0  0  0  0  0  0  0  0
    3.1405   -3.2044    0.2327 H   0  0  0  0  0  0  0  0  0  0  0  0
    4.8643   -3.4327    0.1461 H   0  0  0  0  0  0  0  0  0  0  0  0
    3.4415   -5.6716    0.1379 H   0  0  0  0  0  0  0  0  0  0  0  0
    1.8223   -4.3987    1.6325 H   0  0  0  0  0  0  0  0  0  0  0  0
    2.3491   -8.5401    3.9780 H   0  0  0  0  0  0  0  0  0  0  0  0
    0.8402  -10.6729    4.6385 H   0  0  0  0  0  0  0  0  0  0  0  0
   -1.4550   -8.4179    1.8691 H   0  0  0  0  0  0  0  0  0  0  0  0
    4.3851   -7.7965    1.1465 H   0  0  0  0  0  0  0  0  0  0  0  0
    4.0104   -7.5416    2.8558 H   0  0  0  0  0  0  0  0  0  0  0  0
    5.6563   -7.7592    2.3575 H   0  0  0  0  0  0  0  0  0  0  0  0
    6.4224   -6.1119    0.3544 H   0  0  0  0  0  0  0  0  0  0  0  0
    7.0378   -5.9202    1.9894 H   0  0  0  0  0  0  0  0  0  0  0  0
    6.5413   -4.5204    1.0763 H   0  0  0  0  0  0  0  0  0  0  0  0
    5.3719   -1.7427    4.1090 H   0  0  0  0  0  0  0  0  0  0  0  0
    5.6531    0.5423    3.5061 H   0  0  0  0  0  0  0  0  0  0  0  0
    4.1722    1.3325    2.9455 H   0  0  0  0  0  0  0  0  0  0  0  0
    5.1265    1.3010    5.7852 H   0  0  0  0  0  0  0  0  0  0  0  0
    3.4166   -0.7858    7.1861 H   0  0  0  0  0  0  0  0  0  0  0  0
    1.7221   -0.1723    7.1511 H   0  0  0  0  0  0  0  0  0  0  0  0
    3.0533    0.8648    7.6201 H   0  0  0  0  0  0  0  0  0  0  0  0
    0.8216    1.6202    4.9347 H   0  0  0  0  0  0  0  0  0  0  0  0
   -2.4231    0.4059    4.2081 H   0  0  0  0  0  0  0  0  0  0  0  0
   -0.7151    1.9947    6.2288 H   0  0  0  0  0  0  0  0  0  0  0  0
   -2.4360    1.7712    6.3432 H   0  0  0  0  0  0  0  0  0  0  0  0
   -0.4669   -0.2296    6.3356 H   0  0  0  0  0  0  0  0  0  0  0  0
   -2.1854    2.0740    2.5213 H   0  0  0  0  0  0  0  0  0  0  0  0
   -3.0968    3.2192    4.9414 H   0  0  0  0  0  0  0  0  0  0  0  0
   -1.0986    4.1836    2.7932 H   0  0  0  0  0  0  0  0  0  0  0  0
   -0.3776    3.4522    5.4441 H   0  0  0  0  0  0  0  0  0  0  0  0
    0.3759    2.4442    2.0108 H   0  0  0  0  0  0  0  0  0  0  0  0
    1.4751    4.2933    2.5770 H   0  0  0  0  0  0  0  0  0  0  0  0
  1  2  1  0
  1 49  1  0
  1 50  1  0
  1 51  1  0
  2 23  1  0
  2  3  1  0
  2 52  1  1
  3  4  1  0
  3  5  1  0
  3  6  1  0
  4 53  1  0
  4 54  1  0
  4 55  1  0
  5 56  1  0
  5 57  1  0
  5 58  1  0
  6 35  1  0
  6  7  1  0
  6 59  1  6
  7  8  1  0
  7 60  1  0
  7 61  1  0
  8  9  1  6
  8 10  1  0
  8 28  1  0
  9 62  1  0
 10 23  1  0
 10 11  1  1
 10 12  1  0
 11 63  1  0
 12 13  1  0
 12 64  1  0
 12 65  1  0
 13 25  1  0
 13 14  1  0
 13 66  1  6
 14 15  1  0
 14 23  1  0
 14 67  1  6
 15 16  1  0
 16 17  2  0
 16 18  1  0
 18 22  2  0
 18 19  1  0
 19 20  2  0
 19 68  1  0
 20 21  1  0
 20 69  1  0
 21 48  1  0
 21 22  1  0
 22 70  1  0
 23 24  1  1
 24 25  1  0
 25 26  1  0
 25 27  1  0
 26 71  1  0
 26 72  1  0
 26 73  1  0
 27 74  1  0
 27 75  1  0
 27 76  1  0
 28 35  1  0
 28 29  1  1
 28 30  1  0
 29 77  1  0
 30 31  1  0
 30 78  1  0
 30 79  1  0
 31 33  1  0
 31 32  1  0
 31 80  1  1
 32 33  1  0
 33 34  1  1
 33 35  1  0
 34 81  1  0
 34 82  1  0
 34 83  1  0
 35 36  1  6
 36 37  1  0
 37 46  1  0
 37 38  1  0
 37 84  1  1
 38 39  1  0
 39 40  1  0
 39 42  1  0
 39 85  1  1
 40 41  1  0
 40 86  1  0
 40 87  1  0
 41 88  1  0
 42 43  1  0
 42 44  1  0
 42 89  1  6
 43 90  1  0
 44 45  1  0
 44 46  1  0
 44 91  1  6
 45 92  1  0
 46 47  1  0
 46 93  1  6
 47 94  1  0
M  END
>  <i_m_ct_stereo_status>  (253) 
1

>  <s_m_source_file>  (253) 
/var/tmp/pbs.5083858.sched01/tmpnl70wwuf/105f9iu2hp5.sdf

>  <i_m_source_file_index>  (253) 
1

>  <i_lp_mmshare_version>  (253) 
48012

>  <i_f3d_flags>  (253) 
0

>  <s_epik_input>  (253) 
W09IXVtDQEBIXTFbQ0BIXShbT0hdKVtDQEhdKFtPSF0pW0NASF0oW0NIMl1bT0hdKU9bQ0BIXTFPW0NAQF0oW0NAQF0yKFtDSDNdKVtDQEhdKE8yKVtDSDJdMykoW0NAQEhdKFtDSDJdNClDKFtDSDNdKShbQ0gzXSlbQ0BIXTVbQ0gzXSlbQ0BAXTMoW09IXSlbQ0BAXTQoW09IXSlbQ0BdKFtDQEBdNTY3KShbT0hdKVtDSDJdW0NAQEhdKEMoTzcpKFtDSDNdKVtDSDNdKVtDQEhdNk9DKD1PKWM4W2NIXVtjSF1bbkhdW2NIXTg=

>  <s_epik_cmdline>  (253) 
J2VwaWtfcHl0aG9uJywgJy1waHQnLCAnMi4wJywgJy1waCcsICc3LjAnLCAnLXRuJywgJzgnLCAnLW1hJywgJzIwMCcsICctaW1hZScsICc8aW5maWxlLm1hZT4nLCAnLW9tYWUnLCAnPG91dGZpbGUubWFlPic=

>  <r_lp_tautomer_probability>  (253) 
1

>  <r_epik_Ionization_Penalty>  (253) 
3.19215e-06

>  <r_epik_Ionization_Penalty_Charging>  (253) 
0

>  <r_epik_Ionization_Penalty_Neutral>  (253) 
3.19215e-06

>  <r_epik_State_Penalty>  (253) 
-0

>  <r_epik_Charging_Adjusted_Penalty>  (253) 
0

>  <i_epik_Tot_Q>  (253) 
0

>  <i_epik_Tot_abs_Q>  (253) 
0

>  <s_epik_Chemistry_Notes>  (253) 
This compound has an ester and may undergo hydrolysis at high or low pH. This compound contains an acetal/aminal-like group ( X-CH(R)-Y where X, Y are N, S, or O) that may be acid/base labile, releasing an aldehyde.

>  <s_lp_Force_Field>  (253) 
OPLS3e

>  <r_lp_Energy>  (253) 
141.68

>  <b_lp_Chiralities_Consistent>  (253) 
1

>  <s_lp_Variant>  (253) 
73:0-1

>  <s_i_glide_gridfile>  (253) 
pfpi4k_grid

>  <i_i_glide_lignum>  (253) 
1

>  <i_i_glide_rotatable_bonds>  (253) 
13

>  <r_i_docking_score>  (253) 
-4.34237

>  <r_i_glide_ligand_efficiency>  (253) 
-0.0923908

>  <r_i_glide_ligand_efficiency_sa>  (253) 
-0.333422

>  <r_i_glide_ligand_efficiency_ln>  (253) 
-0.895307

>  <r_i_glide_gscore>  (253) 
-4.34237

>  <r_i_glide_lipo>  (253) 
-0.196426

>  <r_i_glide_hbond>  (253) 
-0.266457

>  <r_i_glide_metal>  (253) 
-0

>  <r_i_glide_rewards>  (253) 
-0.5

>  <r_i_glide_evdw>  (253) 
-30.4919

>  <r_i_glide_ecoul>  (253) 
-12.2907

>  <r_i_glide_erotb>  (253) 
0.129069

>  <r_i_glide_esite>  (253) 
-0.140354

>  <r_i_glide_emodel>  (253) 
-60.657

>  <r_i_glide_energy>  (253) 
-42.7826

>  <r_i_glide_einternal>  (253) 
2.09187

>  <r_i_glide_intrahb_reward>  (253) 
-0.5

>  <i_i_glide_confnum>  (253) 
5

>  <i_i_glide_posenum>  (253) 
7

>  <r_i_glide_eff_state_penalty>  (253) 
0

>  <ligand_id>  (253) 
73

>  <original_smiles>  (253) 
CC1C(C)(C)C2CC(O)(C3(O)CC4C(OC(=O)c5cc[nH]c5)C13OC4(C)C)C1(O)CC3OC3(C)C21OC1OC(CO)C(O)C(O)C1O

>  <smiles>  (253) 
[H]OC([H])([H])C1([H])OC([H])(OC23C4([H])C([H])([H])C(O[H])(C5(O[H])C([H])([H])C6([H])C([H])(OC(=O)c7c([H])c([H])n([H])c7[H])C5(OC6(C([H])([H])[H])C([H])([H])[H])C([H])(C([H])([H])[H])C4(C([H])([H])[H])C([H])([H])[H])C2(O[H])C([H])([H])C2([H])OC23C([H])([H])[H])C([H])(O[H])C([H])(O[H])C1([H])O[H]

$$$$
73:0:2
     RDKit          3D

 94101  0  0  1  0  0  0  0  0999 V2000
    2.9109   -5.3688    5.0421 C   0  0  0  0  0  0  0  0  0  0  0  0
    3.0088   -3.9987    4.3181 C   0  0  2  0  0  0  0  0  0  0  0  0
    1.7143   -3.0954    4.5808 C   0  0  0  0  0  0  0  0  0  0  0  0
    0.4555   -3.8509    4.0860 C   0  0  0  0  0  0  0  0  0  0  0  0
    1.4600   -2.9720    6.0957 C   0  0  0  0  0  0  0  0  0  0  0  0
    1.6283   -1.6428    3.9357 C   0  0  2  0  0  0  0  0  0  0  0  0
    1.9323   -1.6834    2.4149 C   0  0  0  0  0  0  0  0  0  0  0  0
    3.4638   -1.5045    2.2982 C   0  0  2  0  0  0  0  0  0  0  0  0
    3.7525   -0.6774    1.1832 O   0  0  0  0  0  0  0  0  0  0  0  0
    4.1447   -2.9121    2.0603 C   0  0  2  0  0  0  0  0  0  0  0  0
    5.5124   -2.6611    2.3224 O   0  0  0  0  0  0  0  0  0  0  0  0
    4.0703   -3.4736    0.6010 C   0  0  0  0  0  0  0  0  0  0  0  0
    3.8135   -4.9911    0.7811 C   0  0  2  0  0  0  0  0  0  0  0  0
    2.7129   -4.9081    1.8113 C   0  0  1  0  0  0  0  0  0  0  0  0
    2.1321   -6.1265    2.2517 O   0  0  0  0  0  0  0  0  0  0  0  0
    1.0705   -6.6503    1.6216 C   0  0  0  0  0  0  0  0  0  0  0  0
    0.6227   -6.2649    0.5408 O   0  0  0  0  0  0  0  0  0  0  0  0
    0.3865   -7.7064    2.3828 C   0  0  0  0  0  0  0  0  0  0  0  0
   -0.8675   -8.3137    2.1062 C   0  0  0  0  0  0  0  0  0  0  0  0
   -1.1381   -9.1909    3.1020 C   0  0  0  0  0  0  0  0  0  0  0  0
   -0.0668   -9.1830    3.9695 N   0  0  0  0  0  0  0  0  0  0  0  0
    0.8859   -8.2713    3.5296 C   0  0  0  0  0  0  0  0  0  0  0  0
    3.5958   -4.1743    2.8531 C   0  0  2  0  0  0  0  0  0  0  0  0
    4.7291   -5.0860    2.8647 O   0  0  0  0  0  0  0  0  0  0  0  0
    4.9404   -5.6839    1.5768 C   0  0  0  0  0  0  0  0  0  0  0  0
    4.7829   -7.2197    1.7089 C   0  0  0  0  0  0  0  0  0  0  0  0
    6.3693   -5.4246    1.0479 C   0  0  0  0  0  0  0  0  0  0  0  0
    3.8212   -0.7059    3.6326 C   0  0  1  0  0  0  0  0  0  0  0  0
    4.5884   -1.4935    4.5289 O   0  0  0  0  0  0  0  0  0  0  0  0
    4.5824    0.6297    3.7286 C   0  0  0  0  0  0  0  0  0  0  0  0
    4.2711    1.0703    5.1625 C   0  0  1  0  0  0  0  0  0  0  0  0
    3.0929    1.8167    5.4341 O   0  0  0  0  0  0  0  0  0  0  0  0
    2.9404    0.3897    5.5444 C   0  0  2  0  0  0  0  0  0  0  0  0
    2.7104   -0.1309    6.9453 C   0  0  0  0  0  0  0  0  0  0  0  0
    2.4694   -0.3397    4.2560 C   0  0  2  0  0  0  0  0  0  0  0  0
    1.8631    0.7235    3.4460 O   0  0  0  0  0  0  0  0  0  0  0  0
    0.6884    1.3778    3.9218 C   0  0  2  0  0  0  0  0  0  0  0  0
   -0.4535    0.5576    3.9107 O   0  0  0  0  0  0  0  0  0  0  0  0
   -1.6154    1.1315    4.5153 C   0  0  1  0  0  0  0  0  0  0  0  0
   -1.4312    1.3606    6.0485 C   0  0  0  0  0  0  0  0  0  0  0  0
   -1.2169    0.1303    6.7018 O   0  0  0  0  0  0  0  0  0  0  0  0
   -1.9942    2.3697    3.6936 C   0  0  1  0  0  0  0  0  0  0  0  0
   -3.1711    2.9632    4.2105 O   0  0  0  0  0  0  0  0  0  0  0  0
   -0.8543    3.3950    3.6025 C   0  0  1  0  0  0  0  0  0  0  0  0
   -0.6754    4.0486    4.8690 O   0  0  0  0  0  0  0  0  0  0  0  0
    0.4275    2.6741    3.1126 C   0  0  1  0  0  0  0  0  0  0  0  0
    1.5618    3.5379    3.2194 O   0  0  0  0  0  0  0  0  0  0  0  0
    0.0106   -9.7758    4.7806 H   0  0  0  0  0  0  0  0  0  0  0  0
    2.0869   -5.9828    4.6933 H   0  0  0  0  0  0  0  0  0  0  0  0
    2.7798   -5.2551    6.1178 H   0  0  0  0  0  0  0  0  0  0  0  0
    3.8211   -5.9571    4.9188 H   0  0  0  0  0  0  0  0  0  0  0  0
    3.8135   -3.5772    4.8958 H   0  0  0  0  0  0  0  0  0  0  0  0
   -0.4496   -3.2737    4.2882 H   0  0  0  0  0  0  0  0  0  0  0  0
    0.2903   -4.8136    4.5705 H   0  0  0  0  0  0  0  0  0  0  0  0
    0.4942   -4.0410    3.0229 H   0  0  0  0  0  0  0  0  0  0  0  0
    0.7197   -2.2018    6.3052 H   0  0  0  0  0  0  0  0  0  0  0  0
    2.3793   -2.7582    6.6289 H   0  0  0  0  0  0  0  0  0  0  0  0
    1.0596   -3.8905    6.5257 H   0  0  0  0  0  0  0  0  0  0  0  0
    0.5874   -1.3892    4.0600 H   0  0  0  0  0  0  0  0  0  0  0  0
    1.5140   -2.5264    1.8979 H   0  0  0  0  0  0  0  0  0  0  0  0
    1.4172   -0.8728    1.9007 H   0  0  0  0  0  0  0  0  0  0  0  0
    3.1900   -0.9371    0.4610 H   0  0  0  0  0  0  0  0  0  0  0  0
    5.7578   -1.9194    1.7810 H   0  0  0  0  0  0  0  0  0  0  0  0
    3.2231   -3.0409    0.0679 H   0  0  0  0  0  0  0  0  0  0  0  0
    4.9484   -3.2494   -0.0045 H   0  0  0  0  0  0  0  0  0  0  0  0
    3.5425   -5.4972   -0.1457 H   0  0  0  0  0  0  0  0  0  0  0  0
    1.9105   -4.3163    1.3960 H   0  0  0  0  0  0  0  0  0  0  0  0
   -1.5236   -8.1308    1.2788 H   0  0  0  0  0  0  0  0  0  0  0  0
   -1.9788   -9.8421    3.2768 H   0  0  0  0  0  0  0  0  0  0  0  0
    1.7931   -8.1174    4.0781 H   0  0  0  0  0  0  0  0  0  0  0  0
    4.4778   -7.6680    0.7635 H   0  0  0  0  0  0  0  0  0  0  0  0
    4.0648   -7.5147    2.4726 H   0  0  0  0  0  0  0  0  0  0  0  0
    5.7222   -7.6894    2.0003 H   0  0  0  0  0  0  0  0  0  0  0  0
    6.5235   -5.9211    0.0911 H   0  0  0  0  0  0  0  0  0  0  0  0
    7.1088   -5.8176    1.7465 H   0  0  0  0  0  0  0  0  0  0  0  0
    6.6133   -4.3756    0.9050 H   0  0  0  0  0  0  0  0  0  0  0  0
    5.3778   -1.7630    4.0664 H   0  0  0  0  0  0  0  0  0  0  0  0
    5.6558    0.5318    3.5687 H   0  0  0  0  0  0  0  0  0  0  0  0
    4.1845    1.3520    3.0277 H   0  0  0  0  0  0  0  0  0  0  0  0
    5.0988    1.1782    5.8757 H   0  0  0  0  0  0  0  0  0  0  0  0
    3.3638   -0.9825    7.1444 H   0  0  0  0  0  0  0  0  0  0  0  0
    1.6681   -0.3811    7.1141 H   0  0  0  0  0  0  0  0  0  0  0  0
    2.9814    0.6401    7.6682 H   0  0  0  0  0  0  0  0  0  0  0  0
    0.8641    1.6220    4.9679 H   0  0  0  0  0  0  0  0  0  0  0  0
   -2.4172    0.4059    4.3984 H   0  0  0  0  0  0  0  0  0  0  0  0
   -0.6009    2.0189    6.3130 H   0  0  0  0  0  0  0  0  0  0  0  0
   -2.3176    1.8108    6.5063 H   0  0  0  0  0  0  0  0  0  0  0  0
   -0.3408   -0.1965    6.4588 H   0  0  0  0  0  0  0  0  0  0  0  0
   -2.2222    2.0635    2.6794 H   0  0  0  0  0  0  0  0  0  0  0  0
   -3.0069    3.2322    5.1243 H   0  0  0  0  0  0  0  0  0  0  0  0
   -1.1139    4.1687    2.8813 H   0  0  0  0  0  0  0  0  0  0  0  0
   -0.2703    3.4438    5.5082 H   0  0  0  0  0  0  0  0  0  0  0  0
    0.3163    2.4237    2.0592 H   0  0  0  0  0  0  0  0  0  0  0  0
    1.4646    4.2473    2.5631 H   0  0  0  0  0  0  0  0  0  0  0  0
  1  2  1  0
  1 49  1  0
  1 50  1  0
  1 51  1  0
  2 23  1  0
  2  3  1  0
  2 52  1  1
  3  4  1  0
  3  5  1  0
  3  6  1  0
  4 53  1  0
  4 54  1  0
  4 55  1  0
  5 56  1  0
  5 57  1  0
  5 58  1  0
  6 35  1  0
  6  7  1  0
  6 59  1  6
  7  8  1  0
  7 60  1  0
  7 61  1  0
  8  9  1  6
  8 10  1  0
  8 28  1  0
  9 62  1  0
 10 23  1  0
 10 11  1  1
 10 12  1  0
 11 63  1  0
 12 13  1  0
 12 64  1  0
 12 65  1  0
 13 25  1  0
 13 14  1  0
 13 66  1  6
 14 15  1  0
 14 23  1  0
 14 67  1  6
 15 16  1  0
 16 17  2  0
 16 18  1  0
 18 22  2  0
 18 19  1  0
 19 20  2  0
 19 68  1  0
 20 21  1  0
 20 69  1  0
 21 48  1  0
 21 22  1  0
 22 70  1  0
 23 24  1  1
 24 25  1  0
 25 26  1  0
 25 27  1  0
 26 71  1  0
 26 72  1  0
 26 73  1  0
 27 74  1  0
 27 75  1  0
 27 76  1  0
 28 35  1  0
 28 29  1  1
 28 30  1  0
 29 77  1  0
 30 31  1  0
 30 78  1  0
 30 79  1  0
 31 33  1  0
 31 32  1  0
 31 80  1  1
 32 33  1  0
 33 34  1  1
 33 35  1  0
 34 81  1  0
 34 82  1  0
 34 83  1  0
 35 36  1  6
 36 37  1  0
 37 46  1  0
 37 38  1  0
 37 84  1  1
 38 39  1  0
 39 40  1  0
 39 42  1  0
 39 85  1  1
 40 41  1  0
 40 86  1  0
 40 87  1  0
 41 88  1  0
 42 43  1  0
 42 44  1  0
 42 89  1  6
 43 90  1  0
 44 45  1  0
 44 46  1  0
 44 91  1  6
 45 92  1  0
 46 47  1  0
 46 93  1  6
 47 94  1  0
M  END
>  <i_m_ct_stereo_status>  (254) 
1

>  <s_m_source_file>  (254) 
/var/tmp/pbs.5083858.sched01/tmpnl70wwuf/105f9iu2hp5.sdf

>  <i_m_source_file_index>  (254) 
1

>  <i_lp_mmshare_version>  (254) 
48012

>  <i_f3d_flags>  (254) 
0

>  <s_epik_input>  (254) 
W09IXVtDQEBIXTFbQ0BIXShbT0hdKVtDQEhdKFtPSF0pW0NASF0oW0NIMl1bT0hdKU9bQ0BIXTFPW0NAQF0oW0NAQF0yKFtDSDNdKVtDQEhdKE8yKVtDSDJdMykoW0NAQEhdKFtDSDJdNClDKFtDSDNdKShbQ0gzXSlbQ0BIXTVbQ0gzXSlbQ0BAXTMoW09IXSlbQ0BAXTQoW09IXSlbQ0BdKFtDQEBdNTY3KShbT0hdKVtDSDJdW0NAQEhdKEMoTzcpKFtDSDNdKVtDSDNdKVtDQEhdNk9DKD1PKWM4W2NIXVtjSF1bbkhdW2NIXTg=

>  <s_epik_cmdline>  (254) 
J2VwaWtfcHl0aG9uJywgJy1waHQnLCAnMi4wJywgJy1waCcsICc3LjAnLCAnLXRuJywgJzgnLCAnLW1hJywgJzIwMCcsICctaW1hZScsICc8aW5maWxlLm1hZT4nLCAnLW9tYWUnLCAnPG91dGZpbGUubWFlPic=

>  <r_lp_tautomer_probability>  (254) 
1

>  <r_epik_Ionization_Penalty>  (254) 
3.19215e-06

>  <r_epik_Ionization_Penalty_Charging>  (254) 
0

>  <r_epik_Ionization_Penalty_Neutral>  (254) 
3.19215e-06

>  <r_epik_State_Penalty>  (254) 
-0

>  <r_epik_Charging_Adjusted_Penalty>  (254) 
0

>  <i_epik_Tot_Q>  (254) 
0

>  <i_epik_Tot_abs_Q>  (254) 
0

>  <s_epik_Chemistry_Notes>  (254) 
This compound has an ester and may undergo hydrolysis at high or low pH. This compound contains an acetal/aminal-like group ( X-CH(R)-Y where X, Y are N, S, or O) that may be acid/base labile, releasing an aldehyde.

>  <s_lp_Force_Field>  (254) 
OPLS3e

>  <r_lp_Energy>  (254) 
141.68

>  <b_lp_Chiralities_Consistent>  (254) 
1

>  <s_lp_Variant>  (254) 
73:0-1

>  <s_i_glide_gridfile>  (254) 
pfpi4k_grid

>  <i_i_glide_lignum>  (254) 
1

>  <i_i_glide_rotatable_bonds>  (254) 
13

>  <r_i_docking_score>  (254) 
-4.33561

>  <r_i_glide_ligand_efficiency>  (254) 
-0.0922471

>  <r_i_glide_ligand_efficiency_sa>  (254) 
-0.332904

>  <r_i_glide_ligand_efficiency_ln>  (254) 
-0.893914

>  <r_i_glide_gscore>  (254) 
-4.33561

>  <r_i_glide_lipo>  (254) 
-0.263203

>  <r_i_glide_hbond>  (254) 
-0.206195

>  <r_i_glide_metal>  (254) 
-0

>  <r_i_glide_rewards>  (254) 
-0.5

>  <r_i_glide_evdw>  (254) 
-31.1127

>  <r_i_glide_ecoul>  (254) 
-11.9741

>  <r_i_glide_erotb>  (254) 
0.129069

>  <r_i_glide_esite>  (254) 
-0.143531

>  <r_i_glide_emodel>  (254) 
-60.4281

>  <r_i_glide_energy>  (254) 
-43.0868

>  <r_i_glide_einternal>  (254) 
3.29392

>  <r_i_glide_intrahb_reward>  (254) 
-0.5

>  <i_i_glide_confnum>  (254) 
4

>  <i_i_glide_posenum>  (254) 
19

>  <r_i_glide_eff_state_penalty>  (254) 
0

>  <ligand_id>  (254) 
73

>  <original_smiles>  (254) 
CC1C(C)(C)C2CC(O)(C3(O)CC4C(OC(=O)c5cc[nH]c5)C13OC4(C)C)C1(O)CC3OC3(C)C21OC1OC(CO)C(O)C(O)C1O

>  <smiles>  (254) 
[H]OC([H])([H])C1([H])OC([H])(OC23C4([H])C([H])([H])C(O[H])(C5(O[H])C([H])([H])C6([H])C([H])(OC(=O)c7c([H])c([H])n([H])c7[H])C5(OC6(C([H])([H])[H])C([H])([H])[H])C([H])(C([H])([H])[H])C4(C([H])([H])[H])C([H])([H])[H])C2(O[H])C([H])([H])C2([H])OC23C([H])([H])[H])C([H])(O[H])C([H])(O[H])C1([H])O[H]

$$$$
74:0:0
     RDKit          3D

 15 16  0  0  1  0  0  0  0  0999 V2000
    5.1402   -4.3873    1.3318 C   0  0  0  0  0  0  0  0  0  0  0  0
    4.2139   -4.0432    0.2758 N   0  0  0  0  0  0  0  0  0  0  0  0
    2.8754   -4.1193    0.5155 N   0  0  0  0  0  0  0  0  0  0  0  0
    2.2358   -3.7748   -0.5632 N   0  0  0  0  0  0  0  0  0  0  0  0
    3.1747   -3.4507   -1.5259 C   0  0  0  0  0  0  0  0  0  0  0  0
    3.0937   -3.0236   -2.8704 C   0  0  0  0  0  0  0  0  0  0  0  0
    4.2511   -2.8447   -3.5531 N   0  0  0  0  0  0  0  0  0  0  0  0
    5.4182   -3.0586   -2.9297 C   0  0  0  0  0  0  0  0  0  0  0  0
    5.6519   -3.4331   -1.6710 N   0  0  0  0  0  0  0  0  0  0  0  0
    4.4763   -3.6299   -1.0120 C   0  0  0  0  0  0  0  0  0  0  0  0
    6.1647   -4.2891    0.9777 H   0  0  0  0  0  0  0  0  0  0  0  0
    4.9759   -5.4170    1.6492 H   0  0  0  0  0  0  0  0  0  0  0  0
    4.9928   -3.7215    2.1823 H   0  0  0  0  0  0  0  0  0  0  0  0
    2.1555   -2.8673   -3.3856 H   0  0  0  0  0  0  0  0  0  0  0  0
    6.3037   -2.8975   -3.5199 H   0  0  0  0  0  0  0  0  0  0  0  0
  1  2  1  0
  1 11  1  0
  1 12  1  0
  1 13  1  0
  2 10  1  0
  2  3  1  0
  3  4  2  0
  4  5  1  0
  5 10  2  0
  5  6  1  0
  6  7  2  0
  6 14  1  0
  7  8  1  0
  8  9  2  0
  8 15  1  0
  9 10  1  0
M  END
>  <i_m_ct_stereo_status>  (255) 
1

>  <s_m_source_file>  (255) 
/var/tmp/pbs.5083858.sched01/tmpnl70wwuf/105f9iu2hp5.sdf

>  <i_m_source_file_index>  (255) 
2

>  <i_lp_mmshare_version>  (255) 
48012

>  <i_f3d_flags>  (255) 
0

>  <s_epik_input>  (255) 
bjFubihbQ0gzXSljKGMxMiluW2NIXW5bY0hdMg==

>  <s_epik_cmdline>  (255) 
J2VwaWtfcHl0aG9uJywgJy1waHQnLCAnMi4wJywgJy1waCcsICc3LjAnLCAnLXRuJywgJzgnLCAnLW1hJywgJzIwMCcsICctaW1hZScsICc8aW5maWxlLm1hZT4nLCAnLW9tYWUnLCAnPG91dGZpbGUubWFlPic=

>  <r_lp_tautomer_probability>  (255) 
1

>  <r_epik_Ionization_Penalty>  (255) 
1.28168e-10

>  <r_epik_Ionization_Penalty_Charging>  (255) 
0

>  <r_epik_Ionization_Penalty_Neutral>  (255) 
1.28168e-10

>  <r_epik_State_Penalty>  (255) 
-0

>  <r_epik_Charging_Adjusted_Penalty>  (255) 
0

>  <i_epik_Tot_Q>  (255) 
0

>  <i_epik_Tot_abs_Q>  (255) 
0

>  <s_lp_Force_Field>  (255) 
OPLS3e

>  <r_lp_Energy>  (255) 
13.9429

>  <b_lp_Chiralities_Consistent>  (255) 
1

>  <s_lp_Variant>  (255) 
74:0-1

>  <s_i_glide_gridfile>  (255) 
pfpi4k_grid

>  <i_i_glide_lignum>  (255) 
2

>  <i_i_glide_rotatable_bonds>  (255) 
0

>  <r_i_docking_score>  (255) 
-3.87146

>  <r_i_glide_ligand_efficiency>  (255) 
-0.387146

>  <r_i_glide_ligand_efficiency_sa>  (255) 
-0.834081

>  <r_i_glide_ligand_efficiency_ln>  (255) 
-1.17225

>  <r_i_glide_gscore>  (255) 
-3.87146

>  <r_i_glide_lipo>  (255) 
-0.132052

>  <r_i_glide_hbond>  (255) 
0

>  <r_i_glide_metal>  (255) 
-0

>  <r_i_glide_rewards>  (255) 
-2.52164

>  <r_i_glide_evdw>  (255) 
-14.4933

>  <r_i_glide_ecoul>  (255) 
-2.70397

>  <r_i_glide_erotb>  (255) 
0

>  <r_i_glide_esite>  (255) 
-0.0875097

>  <r_i_glide_emodel>  (255) 
-21.773

>  <r_i_glide_energy>  (255) 
-17.1972

>  <r_i_glide_einternal>  (255) 
0

>  <r_i_glide_intrahb_reward>  (255) 
-0

>  <i_i_glide_confnum>  (255) 
2

>  <i_i_glide_posenum>  (255) 
3

>  <r_i_glide_eff_state_penalty>  (255) 
0

>  <ligand_id>  (255) 
74

>  <original_smiles>  (255) 
Cn1nnc2cncnc21

>  <smiles>  (255) 
[H]c1nc([H])c2nnn(C([H])([H])[H])c2n1

$$$$
74:0:1
     RDKit          3D

 15 16  0  0  1  0  0  0  0  0999 V2000
   -0.0261   -1.2370    4.1237 C   0  0  0  0  0  0  0  0  0  0  0  0
   -0.7490   -0.1692    4.7804 N   0  0  0  0  0  0  0  0  0  0  0  0
   -1.1419   -0.3332    6.0749 N   0  0  0  0  0  0  0  0  0  0  0  0
   -1.7638    0.7433    6.4678 N   0  0  0  0  0  0  0  0  0  0  0  0
   -1.7731    1.6339    5.4055 C   0  0  0  0  0  0  0  0  0  0  0  0
   -2.2846    2.9387    5.2187 C   0  0  0  0  0  0  0  0  0  0  0  0
   -2.1328    3.5248    4.0053 N   0  0  0  0  0  0  0  0  0  0  0  0
   -1.4949    2.8555    3.0280 C   0  0  0  0  0  0  0  0  0  0  0  0
   -0.9597    1.6298    3.0663 N   0  0  0  0  0  0  0  0  0  0  0  0
   -1.1302    1.0632    4.2895 C   0  0  0  0  0  0  0  0  0  0  0  0
    0.2152   -0.9533    3.0989 H   0  0  0  0  0  0  0  0  0  0  0  0
   -0.6342   -2.1426    4.1128 H   0  0  0  0  0  0  0  0  0  0  0  0
    0.9035   -1.4391    4.6579 H   0  0  0  0  0  0  0  0  0  0  0  0
   -2.8133    3.4789    5.9941 H   0  0  0  0  0  0  0  0  0  0  0  0
   -1.4029    3.3715    2.0862 H   0  0  0  0  0  0  0  0  0  0  0  0
  1  2  1  0
  1 11  1  0
  1 12  1  0
  1 13  1  0
  2 10  1  0
  2  3  1  0
  3  4  2  0
  4  5  1  0
  5 10  2  0
  5  6  1  0
  6  7  2  0
  6 14  1  0
  7  8  1  0
  8  9  2  0
  8 15  1  0
  9 10  1  0
M  END
>  <i_m_ct_stereo_status>  (256) 
1

>  <s_m_source_file>  (256) 
/var/tmp/pbs.5083858.sched01/tmpnl70wwuf/105f9iu2hp5.sdf

>  <i_m_source_file_index>  (256) 
2

>  <i_lp_mmshare_version>  (256) 
48012

>  <i_f3d_flags>  (256) 
0

>  <s_epik_input>  (256) 
bjFubihbQ0gzXSljKGMxMiluW2NIXW5bY0hdMg==

>  <s_epik_cmdline>  (256) 
J2VwaWtfcHl0aG9uJywgJy1waHQnLCAnMi4wJywgJy1waCcsICc3LjAnLCAnLXRuJywgJzgnLCAnLW1hJywgJzIwMCcsICctaW1hZScsICc8aW5maWxlLm1hZT4nLCAnLW9tYWUnLCAnPG91dGZpbGUubWFlPic=

>  <r_lp_tautomer_probability>  (256) 
1

>  <r_epik_Ionization_Penalty>  (256) 
1.28168e-10

>  <r_epik_Ionization_Penalty_Charging>  (256) 
0

>  <r_epik_Ionization_Penalty_Neutral>  (256) 
1.28168e-10

>  <r_epik_State_Penalty>  (256) 
-0

>  <r_epik_Charging_Adjusted_Penalty>  (256) 
0

>  <i_epik_Tot_Q>  (256) 
0

>  <i_epik_Tot_abs_Q>  (256) 
0

>  <s_lp_Force_Field>  (256) 
OPLS3e

>  <r_lp_Energy>  (256) 
13.9429

>  <b_lp_Chiralities_Consistent>  (256) 
1

>  <s_lp_Variant>  (256) 
74:0-1

>  <s_i_glide_gridfile>  (256) 
pfpi4k_grid

>  <i_i_glide_lignum>  (256) 
2

>  <i_i_glide_rotatable_bonds>  (256) 
0

>  <r_i_docking_score>  (256) 
-3.81028

>  <r_i_glide_ligand_efficiency>  (256) 
-0.381028

>  <r_i_glide_ligand_efficiency_sa>  (256) 
-0.8209

>  <r_i_glide_ligand_efficiency_ln>  (256) 
-1.15373

>  <r_i_glide_gscore>  (256) 
-3.81028

>  <r_i_glide_lipo>  (256) 
0

>  <r_i_glide_hbond>  (256) 
0

>  <r_i_glide_metal>  (256) 
-0

>  <r_i_glide_rewards>  (256) 
-2.25

>  <r_i_glide_evdw>  (256) 
-13.1724

>  <r_i_glide_ecoul>  (256) 
-4.18865

>  <r_i_glide_erotb>  (256) 
0

>  <r_i_glide_esite>  (256) 
-0.273364

>  <r_i_glide_emodel>  (256) 
-21.8675

>  <r_i_glide_energy>  (256) 
-17.361

>  <r_i_glide_einternal>  (256) 
0

>  <r_i_glide_intrahb_reward>  (256) 
-0

>  <i_i_glide_confnum>  (256) 
1

>  <i_i_glide_posenum>  (256) 
23

>  <r_i_glide_eff_state_penalty>  (256) 
0

>  <ligand_id>  (256) 
74

>  <original_smiles>  (256) 
Cn1nnc2cncnc21

>  <smiles>  (256) 
[H]c1nc([H])c2nnn(C([H])([H])[H])c2n1

$$$$
74:0:2
     RDKit          3D

 15 16  0  0  1  0  0  0  0  0999 V2000
    2.4959   -2.9212   -3.8944 C   0  0  0  0  0  0  0  0  0  0  0  0
    2.9866   -3.1466   -2.5539 N   0  0  0  0  0  0  0  0  0  0  0  0
    2.1075   -3.4556   -1.5583 N   0  0  0  0  0  0  0  0  0  0  0  0
    2.7653   -3.6496   -0.4516 N   0  0  0  0  0  0  0  0  0  0  0  0
    4.1085   -3.4808   -0.7365 C   0  0  0  0  0  0  0  0  0  0  0  0
    5.2867   -3.5591    0.0380 C   0  0  0  0  0  0  0  0  0  0  0  0
    6.4719   -3.3254   -0.5788 N   0  0  0  0  0  0  0  0  0  0  0  0
    6.4949   -3.0576   -1.8932 C   0  0  0  0  0  0  0  0  0  0  0  0
    5.4676   -2.9367   -2.7397 N   0  0  0  0  0  0  0  0  0  0  0  0
    4.2843   -3.1598   -2.0960 C   0  0  0  0  0  0  0  0  0  0  0  0
    3.3258   -2.7178   -4.5652 H   0  0  0  0  0  0  0  0  0  0  0  0
    1.8195   -2.0728   -3.9013 H   0  0  0  0  0  0  0  0  0  0  0  0
    1.9639   -3.7999   -4.2522 H   0  0  0  0  0  0  0  0  0  0  0  0
    5.2902   -3.7878    1.0938 H   0  0  0  0  0  0  0  0  0  0  0  0
    7.4788   -2.8906   -2.3137 H   0  0  0  0  0  0  0  0  0  0  0  0
  1  2  1  0
  1 11  1  0
  1 12  1  0
  1 13  1  0
  2 10  1  0
  2  3  1  0
  3  4  2  0
  4  5  1  0
  5 10  2  0
  5  6  1  0
  6  7  2  0
  6 14  1  0
  7  8  1  0
  8  9  2  0
  8 15  1  0
  9 10  1  0
M  END
>  <i_m_ct_stereo_status>  (257) 
1

>  <s_m_source_file>  (257) 
/var/tmp/pbs.5083858.sched01/tmpnl70wwuf/105f9iu2hp5.sdf

>  <i_m_source_file_index>  (257) 
2

>  <i_lp_mmshare_version>  (257) 
48012

>  <i_f3d_flags>  (257) 
0

>  <s_epik_input>  (257) 
bjFubihbQ0gzXSljKGMxMiluW2NIXW5bY0hdMg==

>  <s_epik_cmdline>  (257) 
J2VwaWtfcHl0aG9uJywgJy1waHQnLCAnMi4wJywgJy1waCcsICc3LjAnLCAnLXRuJywgJzgnLCAnLW1hJywgJzIwMCcsICctaW1hZScsICc8aW5maWxlLm1hZT4nLCAnLW9tYWUnLCAnPG91dGZpbGUubWFlPic=

>  <r_lp_tautomer_probability>  (257) 
1

>  <r_epik_Ionization_Penalty>  (257) 
1.28168e-10

>  <r_epik_Ionization_Penalty_Charging>  (257) 
0

>  <r_epik_Ionization_Penalty_Neutral>  (257) 
1.28168e-10

>  <r_epik_State_Penalty>  (257) 
-0

>  <r_epik_Charging_Adjusted_Penalty>  (257) 
0

>  <i_epik_Tot_Q>  (257) 
0

>  <i_epik_Tot_abs_Q>  (257) 
0

>  <s_lp_Force_Field>  (257) 
OPLS3e

>  <r_lp_Energy>  (257) 
13.9429

>  <b_lp_Chiralities_Consistent>  (257) 
1

>  <s_lp_Variant>  (257) 
74:0-1

>  <s_i_glide_gridfile>  (257) 
pfpi4k_grid

>  <i_i_glide_lignum>  (257) 
2

>  <i_i_glide_rotatable_bonds>  (257) 
0

>  <r_i_docking_score>  (257) 
-3.56324

>  <r_i_glide_ligand_efficiency>  (257) 
-0.356324

>  <r_i_glide_ligand_efficiency_sa>  (257) 
-0.767677

>  <r_i_glide_ligand_efficiency_ln>  (257) 
-1.07893

>  <r_i_glide_gscore>  (257) 
-3.56324

>  <r_i_glide_lipo>  (257) 
-0.219107

>  <r_i_glide_hbond>  (257) 
0

>  <r_i_glide_metal>  (257) 
-0

>  <r_i_glide_rewards>  (257) 
-2.31838

>  <r_i_glide_evdw>  (257) 
-17.1296

>  <r_i_glide_ecoul>  (257) 
-0.704685

>  <r_i_glide_erotb>  (257) 
0

>  <r_i_glide_esite>  (257) 
-0.0635733

>  <r_i_glide_emodel>  (257) 
-22.0458

>  <r_i_glide_energy>  (257) 
-17.8343

>  <r_i_glide_einternal>  (257) 
0

>  <r_i_glide_intrahb_reward>  (257) 
-0

>  <i_i_glide_confnum>  (257) 
2

>  <i_i_glide_posenum>  (257) 
2

>  <r_i_glide_eff_state_penalty>  (257) 
0

>  <ligand_id>  (257) 
74

>  <original_smiles>  (257) 
Cn1nnc2cncnc21

>  <smiles>  (257) 
[H]c1nc([H])c2nnn(C([H])([H])[H])c2n1

$$$$
75:0:0
     RDKit          3D

 64 71  0  0  1  0  0  0  0  0999 V2000
    7.0920   -6.9286    1.6976 C   0  0  0  0  0  0  0  0  0  0  0  0
    5.6929   -6.3473    1.7934 C   0  0  2  0  0  0  0  0  0  0  0  0
    5.7108   -4.8201    1.5862 C   0  0  0  0  0  0  0  0  0  0  0  0
    4.3701   -3.9726    1.5756 C   0  0  2  0  0  0  0  0  0  0  0  0
    3.3890   -4.6173    0.5468 C   0  0  0  0  0  0  0  0  0  0  0  0
    2.2794   -5.1181    0.7518 O   0  0  0  0  0  0  0  0  0  0  0  0
    3.8093   -4.3428   -0.6948 O   0  0  0  0  0  0  0  0  0  0  0  0
    4.6836   -3.2430   -0.7796 C   0  0  1  0  0  0  0  0  0  0  0  0
    4.3907   -2.3899   -2.0274 C   0  0  0  0  0  0  0  0  0  0  0  0
    4.2221   -0.9743   -2.1487 C   0  0  0  0  0  0  0  0  0  0  0  0
    4.0007   -0.7031   -3.4672 C   0  0  0  0  0  0  0  0  0  0  0  0
    4.0659   -1.8459   -4.2032 O   0  0  0  0  0  0  0  0  0  0  0  0
    4.3108   -2.8485   -3.3112 C   0  0  0  0  0  0  0  0  0  0  0  0
    4.4665   -2.6580    0.6593 C   0  0  1  0  0  0  0  0  0  0  0  0
    3.1336   -1.7971    0.7023 C   0  0  0  0  0  0  0  0  0  0  0  0
    5.6541   -1.7984    1.1383 C   0  0  1  0  0  0  0  0  0  0  0  0
    6.0064   -0.7504    0.2572 O   0  0  0  0  0  0  0  0  0  0  0  0
    5.2691   -1.1606    2.4619 C   0  0  0  0  0  0  0  0  0  0  0  0
    4.7364   -2.1690    3.4966 C   0  0  0  0  0  0  0  0  0  0  0  0
    4.0149   -3.5681    3.1261 C   0  0  1  0  0  0  0  0  0  0  0  0
    2.4406   -3.5355    3.4483 C   0  0  0  0  0  0  0  0  0  0  0  0
    1.8473   -4.5753    4.3325 O   0  0  0  0  0  0  0  0  0  0  0  0
    2.6169   -5.3624    5.2607 C   0  0  2  0  0  0  0  0  0  0  0  0
    1.8290   -6.3570    5.8870 O   0  0  0  0  0  0  0  0  0  0  0  0
    3.3479   -4.4472    6.2910 C   0  0  1  0  0  0  0  0  0  0  0  0
    4.7064   -4.8807    6.9978 C   0  0  0  0  0  0  0  0  0  0  0  0
    6.0260   -4.7909    6.1142 C   0  0  0  0  0  0  0  0  0  0  0  0
    7.1336   -4.8537    6.6187 O   0  0  0  0  0  0  0  0  0  0  0  0
    5.8226   -4.6160    4.7241 O   0  0  0  0  0  0  0  0  0  0  0  0
    4.4603   -4.4816    4.3717 C   0  0  1  0  0  0  0  0  0  0  0  0
    3.9286   -3.6198    5.3861 O   0  0  0  0  0  0  0  0  0  0  0  0
    3.7689   -5.9176    4.5055 C   0  0  1  0  0  0  0  0  0  0  0  0
    4.4392   -6.9544    5.2236 O   0  0  0  0  0  0  0  0  0  0  0  0
    3.4181   -6.6778    3.2322 C   0  0  0  0  0  0  0  0  0  0  0  0
    4.6477   -7.1906    2.5077 C   0  0  1  0  0  0  0  0  0  0  0  0
    4.6837   -7.0867    1.0744 O   0  0  0  0  0  0  0  0  0  0  0  0
    7.7083   -6.5677    2.5269 H   0  0  0  0  0  0  0  0  0  0  0  0
    7.5727   -6.6496    0.7582 H   0  0  0  0  0  0  0  0  0  0  0  0
    7.0678   -8.0186    1.7500 H   0  0  0  0  0  0  0  0  0  0  0  0
    6.3847   -4.4177    2.3428 H   0  0  0  0  0  0  0  0  0  0  0  0
    6.2912   -4.6840    0.6742 H   0  0  0  0  0  0  0  0  0  0  0  0
    5.6870   -3.6350   -0.9172 H   0  0  0  0  0  0  0  0  0  0  0  0
    4.2375   -0.2206   -1.3968 H   0  0  0  0  0  0  0  0  0  0  0  0
    3.8095    0.2099   -4.0081 H   0  0  0  0  0  0  0  0  0  0  0  0
    4.4028   -3.8351   -3.7603 H   0  0  0  0  0  0  0  0  0  0  0  0
    3.2298   -0.8293    0.2508 H   0  0  0  0  0  0  0  0  0  0  0  0
    2.7595   -1.6352    1.7206 H   0  0  0  0  0  0  0  0  0  0  0  0
    2.2933   -2.2925    0.2021 H   0  0  0  0  0  0  0  0  0  0  0  0
    6.5525   -2.4010    1.2560 H   0  0  0  0  0  0  0  0  0  0  0  0
    5.2504   -0.1920    0.1367 H   0  0  0  0  0  0  0  0  0  0  0  0
    6.1522   -0.6567    2.8652 H   0  0  0  0  0  0  0  0  0  0  0  0
    4.5434   -0.3568    2.3138 H   0  0  0  0  0  0  0  0  0  0  0  0
    5.6341   -2.3519    4.0868 H   0  0  0  0  0  0  0  0  0  0  0  0
    4.1084   -1.5771    4.1683 H   0  0  0  0  0  0  0  0  0  0  0  0
    2.2008   -2.5769    3.9177 H   0  0  0  0  0  0  0  0  0  0  0  0
    1.8474   -3.5057    2.5432 H   0  0  0  0  0  0  0  0  0  0  0  0
    2.3977   -7.0540    6.1802 H   0  0  0  0  0  0  0  0  0  0  0  0
    2.6623   -3.9275    6.9640 H   0  0  0  0  0  0  0  0  0  0  0  0
    4.8892   -4.2217    7.8485 H   0  0  0  0  0  0  0  0  0  0  0  0
    4.6330   -5.8898    7.4055 H   0  0  0  0  0  0  0  0  0  0  0  0
    3.9115   -7.7345    5.2149 H   0  0  0  0  0  0  0  0  0  0  0  0
    2.8096   -7.5464    3.4846 H   0  0  0  0  0  0  0  0  0  0  0  0
    2.7529   -6.1054    2.6416 H   0  0  0  0  0  0  0  0  0  0  0  0
    4.9816   -8.1577    2.8680 H   0  0  0  0  0  0  0  0  0  0  0  0
  2  1  1  6
  1 37  1  0
  1 38  1  0
  1 39  1  0
  2 35  1  0
  2 36  1  0
  2  3  1  0
  4  3  1  1
  3 40  1  0
  3 41  1  0
  4 14  1  0
  4 20  1  0
  4  5  1  0
  5  6  2  0
  5  7  1  0
  7  8  1  0
  8  9  1  0
  8 14  1  0
  8 42  1  1
  9 13  2  0
  9 10  1  0
 10 11  2  0
 10 43  1  0
 11 12  1  0
 11 44  1  0
 12 13  1  0
 13 45  1  0
 14 15  1  6
 14 16  1  0
 15 46  1  0
 15 47  1  0
 15 48  1  0
 16 17  1  0
 16 18  1  0
 16 49  1  1
 17 50  1  0
 18 19  1  0
 18 51  1  0
 18 52  1  0
 20 19  1  1
 19 53  1  0
 19 54  1  0
 20 30  1  0
 20 21  1  0
 21 22  1  0
 21 55  1  0
 21 56  1  0
 22 23  1  0
 23 32  1  0
 23 24  1  1
 23 25  1  0
 24 57  1  0
 25 31  1  0
 25 26  1  0
 25 58  1  1
 26 27  1  0
 26 59  1  0
 26 60  1  0
 27 28  2  0
 27 29  1  0
 30 29  1  1
 30 31  1  0
 30 32  1  0
 32 33  1  1
 32 34  1  0
 33 61  1  0
 34 35  1  0
 34 62  1  0
 34 63  1  0
 35 36  1  0
 35 64  1  6
M  END
>  <i_m_ct_stereo_status>  (258) 
1

>  <s_m_source_file>  (258) 
/var/tmp/pbs.5083858.sched01/tmpnl70wwuf/105f9iu2hp5.sdf

>  <i_m_source_file_index>  (258) 
3

>  <i_lp_mmshare_version>  (258) 
48012

>  <i_f3d_flags>  (258) 
0

>  <s_epik_input>  (258) 
Tz1DKE8xKVtDSDJdW0NAQEhdKE8yKVtDQEBdKFtPSF0pKE9bQ0gyXTMpW0NAQF0oW09IXSkoW0NIMl1bQ0BASF00W0NAXShPNCkoW0NIM10pW0NIMl01KVtDQF0xMltDQF0zKFtDQEBdNTY3KVtDSDJdW0NIMl1bQ0BIXShbT0hdKVtDQEBdNyhbQ0gzXSlbQ0BASF0oT0M2PU8pYzhbY0hdW2NIXW9bY0hdOA==

>  <s_epik_cmdline>  (258) 
J2VwaWtfcHl0aG9uJywgJy1waHQnLCAnMi4wJywgJy1waCcsICc3LjAnLCAnLXRuJywgJzgnLCAnLW1hJywgJzIwMCcsICctaW1hZScsICc8aW5maWxlLm1hZT4nLCAnLW9tYWUnLCAnPG91dGZpbGUubWFlPic=

>  <r_lp_tautomer_probability>  (258) 
1

>  <r_epik_Ionization_Penalty>  (258) 
4.54106e-05

>  <r_epik_Ionization_Penalty_Charging>  (258) 
0

>  <r_epik_Ionization_Penalty_Neutral>  (258) 
4.54106e-05

>  <r_epik_State_Penalty>  (258) 
-0

>  <r_epik_Charging_Adjusted_Penalty>  (258) 
0

>  <i_epik_Tot_Q>  (258) 
0

>  <i_epik_Tot_abs_Q>  (258) 
0

>  <s_epik_Chemistry_Notes>  (258) 
This compound has an ester and may undergo hydrolysis at high or low pH.

>  <s_lp_Force_Field>  (258) 
OPLS3e

>  <r_lp_Energy>  (258) 
167.944

>  <b_lp_Chiralities_Consistent>  (258) 
1

>  <s_lp_Variant>  (258) 
75:0-1

>  <s_i_glide_gridfile>  (258) 
pfpi4k_grid

>  <i_i_glide_lignum>  (258) 
3

>  <i_i_glide_rotatable_bonds>  (258) 
4

>  <r_i_docking_score>  (258) 
-3.23359

>  <r_i_glide_ligand_efficiency>  (258) 
-0.0898219

>  <r_i_glide_ligand_efficiency_sa>  (258) 
-0.296585

>  <r_i_glide_ligand_efficiency_ln>  (258) 
-0.705482

>  <r_i_glide_gscore>  (258) 
-3.23359

>  <r_i_glide_lipo>  (258) 
-0.88253

>  <r_i_glide_hbond>  (258) 
-0.328724

>  <r_i_glide_metal>  (258) 
-0

>  <r_i_glide_rewards>  (258) 
-0.00209981

>  <r_i_glide_evdw>  (258) 
-32.418

>  <r_i_glide_ecoul>  (258) 
-3.14737

>  <r_i_glide_erotb>  (258) 
0.0803406

>  <r_i_glide_esite>  (258) 
-0.00756816

>  <r_i_glide_emodel>  (258) 
-41.0341

>  <r_i_glide_energy>  (258) 
-35.5654

>  <r_i_glide_einternal>  (258) 
3.59622

>  <r_i_glide_intrahb_reward>  (258) 
-0

>  <i_i_glide_confnum>  (258) 
1

>  <i_i_glide_posenum>  (258) 
11

>  <r_i_glide_eff_state_penalty>  (258) 
0

>  <ligand_id>  (258) 
75

>  <original_smiles>  (258) 
CC12CC34C(=O)OC(c5ccoc5)C3(C)C(O)CCC43COC4(O)C5CC(=O)OC3(O5)C4(O)CC1O2

>  <smiles>  (258) 
[H]OC1([H])C([H])([H])C([H])([H])C23C([H])([H])OC4(O[H])C5([H])OC2(OC(=O)C5([H])[H])C4(O[H])C([H])([H])C2([H])OC2(C([H])([H])[H])C([H])([H])C32C(=O)OC([H])(c3c([H])oc([H])c3[H])C12C([H])([H])[H]

$$$$
75:0:1
     RDKit          3D

 64 71  0  0  1  0  0  0  0  0999 V2000
    6.9905   -6.9277    1.6829 C   0  0  0  0  0  0  0  0  0  0  0  0
    5.6074   -6.3094    1.7839 C   0  0  2  0  0  0  0  0  0  0  0  0
    5.6627   -4.7847    1.5663 C   0  0  0  0  0  0  0  0  0  0  0  0
    4.3486   -3.9022    1.5616 C   0  0  2  0  0  0  0  0  0  0  0  0
    3.3318   -4.5341    0.5544 C   0  0  0  0  0  0  0  0  0  0  0  0
    2.2282   -5.0246    0.7751 O   0  0  0  0  0  0  0  0  0  0  0  0
    3.7378   -4.2678   -0.7005 O   0  0  0  0  0  0  0  0  0  0  0  0
    4.6487   -3.1996   -0.8035 C   0  0  1  0  0  0  0  0  0  0  0  0
    4.3651   -2.3554   -2.0549 C   0  0  0  0  0  0  0  0  0  0  0  0
    4.2250   -0.9397   -2.1918 C   0  0  0  0  0  0  0  0  0  0  0  0
    3.9948   -0.6739   -3.5041 C   0  0  0  0  0  0  0  0  0  0  0  0
    4.0296   -1.8234   -4.2338 O   0  0  0  0  0  0  0  0  0  0  0  0
    4.2636   -2.8221   -3.3388 C   0  0  0  0  0  0  0  0  0  0  0  0
    4.4674   -2.5980    0.6310 C   0  0  1  0  0  0  0  0  0  0  0  0
    3.1575   -1.7133    0.6891 C   0  0  0  0  0  0  0  0  0  0  0  0
    5.6827   -1.7634    1.0870 C   0  0  1  0  0  0  0  0  0  0  0  0
    6.0504   -0.7333    0.1924 O   0  0  0  0  0  0  0  0  0  0  0  0
    5.3304   -1.1050    2.4093 C   0  0  0  0  0  0  0  0  0  0  0  0
    4.7842   -2.0871    3.4584 C   0  0  0  0  0  0  0  0  0  0  0  0
    4.0245   -3.4744    3.1122 C   0  0  1  0  0  0  0  0  0  0  0  0
    2.4605   -3.3965    3.4535 C   0  0  0  0  0  0  0  0  0  0  0  0
    1.8465   -4.4022    4.3597 O   0  0  0  0  0  0  0  0  0  0  0  0
    2.6124   -5.1952    5.2929 C   0  0  2  0  0  0  0  0  0  0  0  0
    1.8207   -6.1549    5.9605 O   0  0  0  0  0  0  0  0  0  0  0  0
    3.3825   -4.2916    6.2963 C   0  0  1  0  0  0  0  0  0  0  0  0
    4.7371   -4.7635    6.9899 C   0  0  0  0  0  0  0  0  0  0  0  0
    6.0316   -4.7103    6.0919 C   0  0  0  0  0  0  0  0  0  0  0  0
    7.1607   -4.8003    6.5865 O   0  0  0  0  0  0  0  0  0  0  0  0
    5.8173   -4.5442    4.7000 O   0  0  0  0  0  0  0  0  0  0  0  0
    4.4665   -4.3852    4.3614 C   0  0  1  0  0  0  0  0  0  0  0  0
    3.9733   -3.4940    5.3696 O   0  0  0  0  0  0  0  0  0  0  0  0
    3.7355   -5.7971    4.5248 C   0  0  1  0  0  0  0  0  0  0  0  0
    4.3980   -6.8536    5.2302 O   0  0  0  0  0  0  0  0  0  0  0  0
    3.3472   -6.5621    3.2650 C   0  0  0  0  0  0  0  0  0  0  0  0
    4.5462   -7.1214    2.5132 C   0  0  1  0  0  0  0  0  0  0  0  0
    4.5744   -7.0254    1.0807 O   0  0  0  0  0  0  0  0  0  0  0  0
    7.6259   -6.5739    2.5010 H   0  0  0  0  0  0  0  0  0  0  0  0
    7.4681   -6.6693    0.7357 H   0  0  0  0  0  0  0  0  0  0  0  0
    6.9382   -8.0149    1.7459 H   0  0  0  0  0  0  0  0  0  0  0  0
    6.3574   -4.3908    2.3107 H   0  0  0  0  0  0  0  0  0  0  0  0
    6.2367   -4.6698    0.6449 H   0  0  0  0  0  0  0  0  0  0  0  0
    5.6369   -3.6263   -0.9494 H   0  0  0  0  0  0  0  0  0  0  0  0
    4.2665   -0.1820   -1.4425 H   0  0  0  0  0  0  0  0  0  0  0  0
    3.8159    0.2402   -4.0534 H   0  0  0  0  0  0  0  0  0  0  0  0
    4.3314   -3.8153   -3.7777 H   0  0  0  0  0  0  0  0  0  0  0  0
    3.2628   -0.7465    0.2188 H   0  0  0  0  0  0  0  0  0  0  0  0
    2.8031   -1.5195    1.7039 H   0  0  0  0  0  0  0  0  0  0  0  0
    2.3052   -2.2010    0.2116 H   0  0  0  0  0  0  0  0  0  0  0  0
    6.5662   -2.3880    1.1974 H   0  0  0  0  0  0  0  0  0  0  0  0
    5.3107   -0.1466    0.0909 H   0  0  0  0  0  0  0  0  0  0  0  0
    6.2322   -0.6206    2.7968 H   0  0  0  0  0  0  0  0  0  0  0  0
    4.6253   -0.2810    2.2622 H   0  0  0  0  0  0  0  0  0  0  0  0
    5.6840   -2.2876    4.0393 H   0  0  0  0  0  0  0  0  0  0  0  0
    4.1801   -1.4728    4.1347 H   0  0  0  0  0  0  0  0  0  0  0  0
    2.2433   -2.4306    3.9170 H   0  0  0  0  0  0  0  0  0  0  0  0
    1.8470   -3.3663    2.5627 H   0  0  0  0  0  0  0  0  0  0  0  0
    1.2105   -5.6962    6.5183 H   0  0  0  0  0  0  0  0  0  0  0  0
    2.7138   -3.7617    6.9678 H   0  0  0  0  0  0  0  0  0  0  0  0
    4.9358   -4.1026    7.8366 H   0  0  0  0  0  0  0  0  0  0  0  0
    4.6337   -5.7663    7.4067 H   0  0  0  0  0  0  0  0  0  0  0  0
    5.1346   -7.1504    4.7214 H   0  0  0  0  0  0  0  0  0  0  0  0
    2.7236   -7.4126    3.5406 H   0  0  0  0  0  0  0  0  0  0  0  0
    2.6861   -5.9808    2.6784 H   0  0  0  0  0  0  0  0  0  0  0  0
    4.8573   -8.0960    2.8752 H   0  0  0  0  0  0  0  0  0  0  0  0
  2  1  1  6
  1 37  1  0
  1 38  1  0
  1 39  1  0
  2 35  1  0
  2 36  1  0
  2  3  1  0
  4  3  1  1
  3 40  1  0
  3 41  1  0
  4 14  1  0
  4 20  1  0
  4  5  1  0
  5  6  2  0
  5  7  1  0
  7  8  1  0
  8  9  1  0
  8 14  1  0
  8 42  1  6
  9 13  2  0
  9 10  1  0
 10 11  2  0
 10 43  1  0
 11 12  1  0
 11 44  1  0
 12 13  1  0
 13 45  1  0
 14 15  1  6
 14 16  1  0
 15 46  1  0
 15 47  1  0
 15 48  1  0
 16 17  1  0
 16 18  1  0
 16 49  1  1
 17 50  1  0
 18 19  1  0
 18 51  1  0
 18 52  1  0
 20 19  1  1
 19 53  1  0
 19 54  1  0
 20 30  1  0
 20 21  1  0
 21 22  1  0
 21 55  1  0
 21 56  1  0
 22 23  1  0
 23 32  1  0
 23 24  1  1
 23 25  1  0
 24 57  1  0
 25 31  1  0
 25 26  1  0
 25 58  1  1
 26 27  1  0
 26 59  1  0
 26 60  1  0
 27 28  2  0
 27 29  1  0
 30 29  1  1
 30 31  1  0
 30 32  1  0
 32 33  1  1
 32 34  1  0
 33 61  1  0
 34 35  1  0
 34 62  1  0
 34 63  1  0
 35 36  1  0
 35 64  1  6
M  END
>  <i_m_ct_stereo_status>  (259) 
1

>  <s_m_source_file>  (259) 
/var/tmp/pbs.5083858.sched01/tmpnl70wwuf/105f9iu2hp5.sdf

>  <i_m_source_file_index>  (259) 
3

>  <i_lp_mmshare_version>  (259) 
48012

>  <i_f3d_flags>  (259) 
0

>  <s_epik_input>  (259) 
Tz1DKE8xKVtDSDJdW0NAQEhdKE8yKVtDQEBdKFtPSF0pKE9bQ0gyXTMpW0NAQF0oW09IXSkoW0NIMl1bQ0BASF00W0NAXShPNCkoW0NIM10pW0NIMl01KVtDQF0xMltDQF0zKFtDQEBdNTY3KVtDSDJdW0NIMl1bQ0BIXShbT0hdKVtDQEBdNyhbQ0gzXSlbQ0BASF0oT0M2PU8pYzhbY0hdW2NIXW9bY0hdOA==

>  <s_epik_cmdline>  (259) 
J2VwaWtfcHl0aG9uJywgJy1waHQnLCAnMi4wJywgJy1waCcsICc3LjAnLCAnLXRuJywgJzgnLCAnLW1hJywgJzIwMCcsICctaW1hZScsICc8aW5maWxlLm1hZT4nLCAnLW9tYWUnLCAnPG91dGZpbGUubWFlPic=

>  <r_lp_tautomer_probability>  (259) 
1

>  <r_epik_Ionization_Penalty>  (259) 
4.54106e-05

>  <r_epik_Ionization_Penalty_Charging>  (259) 
0

>  <r_epik_Ionization_Penalty_Neutral>  (259) 
4.54106e-05

>  <r_epik_State_Penalty>  (259) 
-0

>  <r_epik_Charging_Adjusted_Penalty>  (259) 
0

>  <i_epik_Tot_Q>  (259) 
0

>  <i_epik_Tot_abs_Q>  (259) 
0

>  <s_epik_Chemistry_Notes>  (259) 
This compound has an ester and may undergo hydrolysis at high or low pH.

>  <s_lp_Force_Field>  (259) 
OPLS3e

>  <r_lp_Energy>  (259) 
167.944

>  <b_lp_Chiralities_Consistent>  (259) 
1

>  <s_lp_Variant>  (259) 
75:0-1

>  <s_i_glide_gridfile>  (259) 
pfpi4k_grid

>  <i_i_glide_lignum>  (259) 
3

>  <i_i_glide_rotatable_bonds>  (259) 
4

>  <r_i_docking_score>  (259) 
-3.19568

>  <r_i_glide_ligand_efficiency>  (259) 
-0.0887688

>  <r_i_glide_ligand_efficiency_sa>  (259) 
-0.293108

>  <r_i_glide_ligand_efficiency_ln>  (259) 
-0.69721

>  <r_i_glide_gscore>  (259) 
-3.19568

>  <r_i_glide_lipo>  (259) 
-0.902357

>  <r_i_glide_hbond>  (259) 
-0.338707

>  <r_i_glide_metal>  (259) 
-0

>  <r_i_glide_rewards>  (259) 
-0.00262651

>  <r_i_glide_evdw>  (259) 
-32.2239

>  <r_i_glide_ecoul>  (259) 
-2.75366

>  <r_i_glide_erotb>  (259) 
0.0803406

>  <r_i_glide_esite>  (259) 
-0.00808355

>  <r_i_glide_emodel>  (259) 
-41.1663

>  <r_i_glide_energy>  (259) 
-34.9775

>  <r_i_glide_einternal>  (259) 
1.89755

>  <r_i_glide_intrahb_reward>  (259) 
-0

>  <i_i_glide_confnum>  (259) 
1

>  <i_i_glide_posenum>  (259) 
4

>  <r_i_glide_eff_state_penalty>  (259) 
0

>  <ligand_id>  (259) 
75

>  <original_smiles>  (259) 
CC12CC34C(=O)OC(c5ccoc5)C3(C)C(O)CCC43COC4(O)C5CC(=O)OC3(O5)C4(O)CC1O2

>  <smiles>  (259) 
[H]OC1([H])C([H])([H])C([H])([H])C23C([H])([H])OC4(O[H])C5([H])OC2(OC(=O)C5([H])[H])C4(O[H])C([H])([H])C2([H])OC2(C([H])([H])[H])C([H])([H])C32C(=O)OC([H])(c3c([H])oc([H])c3[H])C12C([H])([H])[H]

$$$$
75:0:2
     RDKit          3D

 64 71  0  0  1  0  0  0  0  0999 V2000
    4.1444   -5.5655    6.9533 C   0  0  0  0  0  0  0  0  0  0  0  0
    4.6631   -6.4769    5.8529 C   0  0  2  0  0  0  0  0  0  0  0  0
    4.1723   -5.9954    4.4733 C   0  0  0  0  0  0  0  0  0  0  0  0
    4.6256   -6.7251    3.1390 C   0  0  2  0  0  0  0  0  0  0  0  0
    6.1844   -6.8210    3.1208 C   0  0  0  0  0  0  0  0  0  0  0  0
    6.8845   -7.8242    3.1248 O   0  0  0  0  0  0  0  0  0  0  0  0
    6.6857   -5.6056    2.8938 O   0  0  0  0  0  0  0  0  0  0  0  0
    5.7815   -4.7100    2.2869 C   0  0  1  0  0  0  0  0  0  0  0  0
    6.4601   -3.8974    1.1952 C   0  0  0  0  0  0  0  0  0  0  0  0
    7.6483   -4.2161    0.4556 C   0  0  0  0  0  0  0  0  0  0  0  0
    7.8963   -3.1597   -0.3599 C   0  0  0  0  0  0  0  0  0  0  0  0
    6.9609   -2.1899   -0.1930 O   0  0  0  0  0  0  0  0  0  0  0  0
    6.1028   -2.6614    0.7505 C   0  0  0  0  0  0  0  0  0  0  0  0
    4.6736   -5.7312    1.8862 C   0  0  1  0  0  0  0  0  0  0  0  0
    5.0916   -6.4255    0.5255 C   0  0  0  0  0  0  0  0  0  0  0  0
    3.3004   -5.0738    1.6752 C   0  0  1  0  0  0  0  0  0  0  0  0
    3.3070   -4.0314    0.7194 O   0  0  0  0  0  0  0  0  0  0  0  0
    2.3357   -6.1278    1.1618 C   0  0  0  0  0  0  0  0  0  0  0  0
    2.3309   -7.4324    1.9811 C   0  0  0  0  0  0  0  0  0  0  0  0
    3.5811   -7.9634    2.8563 C   0  0  1  0  0  0  0  0  0  0  0  0
    4.2609   -9.2582    2.2046 C   0  0  0  0  0  0  0  0  0  0  0  0
    4.4130  -10.4869    3.0334 O   0  0  0  0  0  0  0  0  0  0  0  0
    3.6404  -10.7967    4.2093 C   0  0  2  0  0  0  0  0  0  0  0  0
    4.0719  -11.9885    4.8629 O   0  0  0  0  0  0  0  0  0  0  0  0
    2.1263  -10.8116    3.8509 C   0  0  1  0  0  0  0  0  0  0  0  0
    1.0151  -10.4577    4.9316 C   0  0  0  0  0  0  0  0  0  0  0  0
    0.8221   -8.9254    5.2731 C   0  0  0  0  0  0  0  0  0  0  0  0
   -0.1629   -8.5629    5.9193 O   0  0  0  0  0  0  0  0  0  0  0  0
    1.8285   -8.0456    4.8133 O   0  0  0  0  0  0  0  0  0  0  0  0
    2.8118   -8.7167    4.0551 C   0  0  1  0  0  0  0  0  0  0  0  0
    2.0572   -9.6068    3.2231 O   0  0  0  0  0  0  0  0  0  0  0  0
    3.7101   -9.5898    5.0604 C   0  0  1  0  0  0  0  0  0  0  0  0
    3.2564   -9.8298    6.3950 O   0  0  0  0  0  0  0  0  0  0  0  0
    5.1189   -9.0997    5.3809 C   0  0  0  0  0  0  0  0  0  0  0  0
    5.1234   -7.8550    6.2543 C   0  0  1  0  0  0  0  0  0  0  0  0
    6.0598   -6.8091    5.9570 O   0  0  0  0  0  0  0  0  0  0  0  0
    3.0582   -5.6503    7.0318 H   0  0  0  0  0  0  0  0  0  0  0  0
    4.4073   -4.5205    6.7694 H   0  0  0  0  0  0  0  0  0  0  0  0
    4.5691   -5.8486    7.9175 H   0  0  0  0  0  0  0  0  0  0  0  0
    3.0818   -5.9801    4.5168 H   0  0  0  0  0  0  0  0  0  0  0  0
    4.4088   -4.9311    4.4523 H   0  0  0  0  0  0  0  0  0  0  0  0
    5.4349   -3.9972    3.0337 H   0  0  0  0  0  0  0  0  0  0  0  0
    8.2446   -5.1099    0.5382 H   0  0  0  0  0  0  0  0  0  0  0  0
    8.6701   -2.9325   -1.0844 H   0  0  0  0  0  0  0  0  0  0  0  0
    5.2978   -1.9776    1.0075 H   0  0  0  0  0  0  0  0  0  0  0  0
    5.0087   -5.7551   -0.3296 H   0  0  0  0  0  0  0  0  0  0  0  0
    4.5002   -7.3086    0.2798 H   0  0  0  0  0  0  0  0  0  0  0  0
    6.1272   -6.7667    0.5159 H   0  0  0  0  0  0  0  0  0  0  0  0
    2.9370   -4.6449    2.6069 H   0  0  0  0  0  0  0  0  0  0  0  0
    3.6493   -4.3649   -0.1014 H   0  0  0  0  0  0  0  0  0  0  0  0
    1.3329   -5.7032    1.1703 H   0  0  0  0  0  0  0  0  0  0  0  0
    2.5237   -6.3330    0.1062 H   0  0  0  0  0  0  0  0  0  0  0  0
    1.4658   -7.2719    2.6255 H   0  0  0  0  0  0  0  0  0  0  0  0
    1.9842   -8.2115    1.2959 H   0  0  0  0  0  0  0  0  0  0  0  0
    3.6920   -9.5630    1.3235 H   0  0  0  0  0  0  0  0  0  0  0  0
    5.2314   -9.0270    1.7791 H   0  0  0  0  0  0  0  0  0  0  0  0
    3.4447  -12.2103    5.5457 H   0  0  0  0  0  0  0  0  0  0  0  0
    1.8496  -11.6508    3.2089 H   0  0  0  0  0  0  0  0  0  0  0  0
    0.0471  -10.8032    4.5624 H   0  0  0  0  0  0  0  0  0  0  0  0
    1.1564  -11.0252    5.8545 H   0  0  0  0  0  0  0  0  0  0  0  0
    2.5350  -10.4424    6.3905 H   0  0  0  0  0  0  0  0  0  0  0  0
    5.6513   -9.8732    5.9388 H   0  0  0  0  0  0  0  0  0  0  0  0
    5.6974   -9.0158    4.5000 H   0  0  0  0  0  0  0  0  0  0  0  0
    5.0730   -8.0814    7.3155 H   0  0  0  0  0  0  0  0  0  0  0  0
  2  1  1  1
  1 37  1  0
  1 38  1  0
  1 39  1  0
  2 35  1  0
  2 36  1  0
  2  3  1  0
  4  3  1  1
  3 40  1  0
  3 41  1  0
  4 14  1  0
  4 20  1  0
  4  5  1  0
  5  6  2  0
  5  7  1  0
  7  8  1  0
  8  9  1  0
  8 14  1  0
  8 42  1  1
  9 13  2  0
  9 10  1  0
 10 11  2  0
 10 43  1  0
 11 12  1  0
 11 44  1  0
 12 13  1  0
 13 45  1  0
 14 15  1  6
 14 16  1  0
 15 46  1  0
 15 47  1  0
 15 48  1  0
 16 17  1  0
 16 18  1  0
 16 49  1  1
 17 50  1  0
 18 19  1  0
 18 51  1  0
 18 52  1  0
 20 19  1  6
 19 53  1  0
 19 54  1  0
 20 30  1  0
 20 21  1  0
 21 22  1  0
 21 55  1  0
 21 56  1  0
 22 23  1  0
 23 32  1  0
 23 24  1  1
 23 25  1  0
 24 57  1  0
 25 31  1  0
 25 26  1  0
 25 58  1  6
 26 27  1  0
 26 59  1  0
 26 60  1  0
 27 28  2  0
 27 29  1  0
 30 29  1  1
 30 31  1  0
 30 32  1  0
 32 33  1  1
 32 34  1  0
 33 61  1  0
 34 35  1  0
 34 62  1  0
 34 63  1  0
 35 36  1  0
 35 64  1  1
M  END
>  <i_m_ct_stereo_status>  (260) 
1

>  <s_m_source_file>  (260) 
/var/tmp/pbs.5083858.sched01/tmpnl70wwuf/105f9iu2hp5.sdf

>  <i_m_source_file_index>  (260) 
3

>  <i_lp_mmshare_version>  (260) 
48012

>  <i_f3d_flags>  (260) 
0

>  <s_epik_input>  (260) 
Tz1DKE8xKVtDSDJdW0NAQEhdKE8yKVtDQEBdKFtPSF0pKE9bQ0gyXTMpW0NAQF0oW09IXSkoW0NIMl1bQ0BASF00W0NAXShPNCkoW0NIM10pW0NIMl01KVtDQF0xMltDQF0zKFtDQEBdNTY3KVtDSDJdW0NIMl1bQ0BIXShbT0hdKVtDQEBdNyhbQ0gzXSlbQ0BASF0oT0M2PU8pYzhbY0hdW2NIXW9bY0hdOA==

>  <s_epik_cmdline>  (260) 
J2VwaWtfcHl0aG9uJywgJy1waHQnLCAnMi4wJywgJy1waCcsICc3LjAnLCAnLXRuJywgJzgnLCAnLW1hJywgJzIwMCcsICctaW1hZScsICc8aW5maWxlLm1hZT4nLCAnLW9tYWUnLCAnPG91dGZpbGUubWFlPic=

>  <r_lp_tautomer_probability>  (260) 
1

>  <r_epik_Ionization_Penalty>  (260) 
4.54106e-05

>  <r_epik_Ionization_Penalty_Charging>  (260) 
0

>  <r_epik_Ionization_Penalty_Neutral>  (260) 
4.54106e-05

>  <r_epik_State_Penalty>  (260) 
-0

>  <r_epik_Charging_Adjusted_Penalty>  (260) 
0

>  <i_epik_Tot_Q>  (260) 
0

>  <i_epik_Tot_abs_Q>  (260) 
0

>  <s_epik_Chemistry_Notes>  (260) 
This compound has an ester and may undergo hydrolysis at high or low pH.

>  <s_lp_Force_Field>  (260) 
OPLS3e

>  <r_lp_Energy>  (260) 
167.944

>  <b_lp_Chiralities_Consistent>  (260) 
1

>  <s_lp_Variant>  (260) 
75:0-1

>  <s_i_glide_gridfile>  (260) 
pfpi4k_grid

>  <i_i_glide_lignum>  (260) 
3

>  <i_i_glide_rotatable_bonds>  (260) 
4

>  <r_i_docking_score>  (260) 
-2.72987

>  <r_i_glide_ligand_efficiency>  (260) 
-0.0758298

>  <r_i_glide_ligand_efficiency_sa>  (260) 
-0.250385

>  <r_i_glide_ligand_efficiency_ln>  (260) 
-0.595585

>  <r_i_glide_gscore>  (260) 
-2.72987

>  <r_i_glide_lipo>  (260) 
-0.697063

>  <r_i_glide_hbond>  (260) 
-0.0486441

>  <r_i_glide_metal>  (260) 
-0

>  <r_i_glide_rewards>  (260) 
-0.00754335

>  <r_i_glide_evdw>  (260) 
-29.4499

>  <r_i_glide_ecoul>  (260) 
-3.53617

>  <r_i_glide_erotb>  (260) 
0.0803406

>  <r_i_glide_esite>  (260) 
-0.0540436

>  <r_i_glide_emodel>  (260) 
-38.1029

>  <r_i_glide_energy>  (260) 
-32.9861

>  <r_i_glide_einternal>  (260) 
2.11081

>  <r_i_glide_intrahb_reward>  (260) 
-0

>  <i_i_glide_confnum>  (260) 
1

>  <i_i_glide_posenum>  (260) 
13

>  <r_i_glide_eff_state_penalty>  (260) 
0

>  <ligand_id>  (260) 
75

>  <original_smiles>  (260) 
CC12CC34C(=O)OC(c5ccoc5)C3(C)C(O)CCC43COC4(O)C5CC(=O)OC3(O5)C4(O)CC1O2

>  <smiles>  (260) 
[H]OC1([H])C([H])([H])C([H])([H])C23C([H])([H])OC4(O[H])C5([H])OC2(OC(=O)C5([H])[H])C4(O[H])C([H])([H])C2([H])OC2(C([H])([H])[H])C([H])([H])C32C(=O)OC([H])(c3c([H])oc([H])c3[H])C12C([H])([H])[H]

$$$$
76:0:0
     RDKit          3D

 40 45  0  0  1  0  0  0  0  0999 V2000
    6.1562   -2.2369   -0.7617 C   0  0  0  0  0  0  0  0  0  0  0  0
    4.8400   -2.1077   -1.2383 C   0  0  0  0  0  0  0  0  0  0  0  0
    3.8349   -1.5262   -0.4250 C   0  0  0  0  0  0  0  0  0  0  0  0
    4.1167   -1.0545    0.8799 C   0  0  0  0  0  0  0  0  0  0  0  0
    3.3925   -0.4417    1.9773 C   0  0  0  0  0  0  0  0  0  0  0  0
    1.9256   -0.0914    2.0399 C   0  0  0  0  0  0  0  0  0  0  0  0
    1.6310    1.4155    1.8576 C   0  0  2  0  0  0  0  0  0  0  0  0
    2.1694    2.3533    2.9483 C   0  0  0  0  0  0  0  0  0  0  0  0
    1.6270    2.1277    4.3430 C   0  0  1  0  0  0  0  0  0  0  0  0
    0.3824    2.8376    4.8081 C   0  0  1  0  0  0  0  0  0  0  0  0
   -0.6662    3.4214    3.8855 C   0  0  0  0  0  0  0  0  0  0  0  0
   -1.4155    2.2357    3.3046 C   0  0  1  0  0  0  0  0  0  0  0  0
   -0.9046    1.2424    2.2883 C   0  0  1  0  0  0  0  0  0  0  0  0
    0.2344    1.7402    1.4845 N   0  0  0  0  0  0  0  0  0  0  0  0
   -0.7408    0.9556    3.7586 C   0  0  1  0  0  0  0  0  0  0  0  0
    0.3881    1.3349    4.6833 C   0  0  1  0  0  0  0  0  0  0  0  0
    4.1882   -0.2508    3.0039 N   0  0  0  0  0  0  0  0  0  0  0  0
    5.4159   -0.6843    2.6158 N   0  0  0  0  0  0  0  0  0  0  0  0
    5.4479   -1.2002    1.3333 C   0  0  0  0  0  0  0  0  0  0  0  0
    6.4667   -1.7752    0.5346 C   0  0  0  0  0  0  0  0  0  0  0  0
    6.2014   -0.6273    3.2437 H   0  0  0  0  0  0  0  0  0  0  0  0
    6.9244   -2.6894   -1.3836 H   0  0  0  0  0  0  0  0  0  0  0  0
    4.5831   -2.4591   -2.2301 H   0  0  0  0  0  0  0  0  0  0  0  0
    2.8338   -1.4550   -0.8087 H   0  0  0  0  0  0  0  0  0  0  0  0
    1.5197   -0.4238    2.9916 H   0  0  0  0  0  0  0  0  0  0  0  0
    1.3939   -0.6638    1.2866 H   0  0  0  0  0  0  0  0  0  0  0  0
    2.2006    1.6826    0.9782 H   0  0  0  0  0  0  0  0  0  0  0  0
    3.2492    2.2350    3.0040 H   0  0  0  0  0  0  0  0  0  0  0  0
    2.0266    3.3998    2.6744 H   0  0  0  0  0  0  0  0  0  0  0  0
    2.4126    2.0414    5.0891 H   0  0  0  0  0  0  0  0  0  0  0  0
    0.4045    3.2443    5.8112 H   0  0  0  0  0  0  0  0  0  0  0  0
   -1.3439    4.0726    4.4451 H   0  0  0  0  0  0  0  0  0  0  0  0
   -0.1994    4.0089    3.0948 H   0  0  0  0  0  0  0  0  0  0  0  0
   -2.4881    2.2689    3.4590 H   0  0  0  0  0  0  0  0  0  0  0  0
   -1.6524    0.7020    1.7075 H   0  0  0  0  0  0  0  0  0  0  0  0
    0.1570    2.7551    1.3295 H   0  0  0  0  0  0  0  0  0  0  0  0
   -1.4154    0.1962    4.1477 H   0  0  0  0  0  0  0  0  0  0  0  0
    0.4357    0.7874    5.6198 H   0  0  0  0  0  0  0  0  0  0  0  0
    7.4661   -1.8726    0.9167 H   0  0  0  0  0  0  0  0  0  0  0  0
    0.0677    1.2995    0.5903 H   0  0  0  0  0  0  0  0  0  0  0  0
  1 20  2  0
  1 22  1  0
  1  2  1  0
  2 23  1  0
  2  3  2  0
  3 24  1  0
  3  4  1  0
  4 19  2  0
  4  5  1  0
  5 17  2  0
  5  6  1  0
  6  7  1  0
  6 25  1  0
  6 26  1  0
  7 14  1  0
  7  8  1  0
  7 27  1  6
  8  9  1  0
  8 28  1  0
  8 29  1  0
  9 16  1  0
  9 10  1  0
  9 30  1  1
 10 16  1  0
 10 11  1  0
 10 31  1  1
 11 12  1  0
 11 32  1  0
 11 33  1  0
 12 15  1  0
 12 13  1  0
 12 34  1  1
 13 14  1  0
 13 15  1  0
 13 35  1  6
 14 36  1  0
 14 40  1  0
 15 16  1  0
 15 37  1  1
 16 38  1  1
 17 18  1  0
 18 21  1  0
 18 19  1  0
 19 20  1  0
 20 39  1  0
M  CHG  1  14   1
M  END
>  <i_m_ct_stereo_status>  (261) 
1

>  <s_m_source_file>  (261) 
/var/tmp/pbs.5083858.sched01/tmpnl70wwuf/105f9iu2hp5.sdf

>  <i_m_source_file_index>  (261) 
4

>  <i_lp_mmshare_version>  (261) 
48012

>  <i_f3d_flags>  (261) 
0

>  <s_epik_input>  (261) 
W2NIXTFbY0hdW2NIXVtjSF1jKGMxMiluW25IXWMyW0NIMl1bQ0BIXShbQ0gyXTMpW05IXVtDQEBIXTRbQ0BIXShbQ0gyXTUpW0NAQEhdNFtDQEBIXTZbQ0BIXTVbQ0BIXTM2

>  <s_epik_cmdline>  (261) 
J2VwaWtfcHl0aG9uJywgJy1waHQnLCAnMi4wJywgJy1waCcsICc3LjAnLCAnLXRuJywgJzgnLCAnLW1hJywgJzIwMCcsICctaW1hZScsICc8aW5maWxlLm1hZT4nLCAnLW9tYWUnLCAnPG91dGZpbGUubWFlPic=

>  <r_lp_tautomer_probability>  (261) 
0.980392

>  <r_epik_Ionization_Penalty>  (261) 
0.0174862

>  <r_epik_Ionization_Penalty_Charging>  (261) 
0.0174847

>  <r_epik_Ionization_Penalty_Neutral>  (261) 
1.49876e-06

>  <r_epik_State_Penalty>  (261) 
0.0235121

>  <r_epik_Charging_Adjusted_Penalty>  (261) 
0.0409968

>  <i_epik_Tot_Q>  (261) 
1

>  <i_epik_Tot_abs_Q>  (261) 
1

>  <s_lp_Force_Field>  (261) 
OPLS3e

>  <r_lp_Energy>  (261) 
43.968

>  <b_lp_Chiralities_Consistent>  (261) 
1

>  <s_lp_Variant>  (261) 
76:0-1

>  <s_i_glide_gridfile>  (261) 
pfpi4k_grid

>  <i_i_glide_lignum>  (261) 
4

>  <i_i_glide_rotatable_bonds>  (261) 
2

>  <r_i_docking_score>  (261) 
-3.91568

>  <r_i_glide_ligand_efficiency>  (261) 
-0.195784

>  <r_i_glide_ligand_efficiency_sa>  (261) 
-0.531439

>  <r_i_glide_ligand_efficiency_ln>  (261) 
-0.979965

>  <r_i_glide_gscore>  (261) 
-3.91568

>  <r_i_glide_lipo>  (261) 
-0.18056

>  <r_i_glide_hbond>  (261) 
-0.391803

>  <r_i_glide_metal>  (261) 
-0

>  <r_i_glide_rewards>  (261) 
-1.59299

>  <r_i_glide_evdw>  (261) 
-19.4049

>  <r_i_glide_ecoul>  (261) 
-8.00905

>  <r_i_glide_erotb>  (261) 
0.502131

>  <r_i_glide_esite>  (261) 
-0.0808469

>  <r_i_glide_emodel>  (261) 
-36.8693

>  <r_i_glide_energy>  (261) 
-27.414

>  <r_i_glide_einternal>  (261) 
0.351227

>  <r_i_glide_intrahb_reward>  (261) 
-0

>  <i_i_glide_confnum>  (261) 
1

>  <i_i_glide_posenum>  (261) 
29

>  <r_i_glide_eff_state_penalty>  (261) 
0

>  <ligand_id>  (261) 
76

>  <original_smiles>  (261) 
c1ccc2c(CC3CC4C5CC6C(N3)C6C45)[nH]nc2c1

>  <smiles>  (261) 
[H]c1c([H])c([H])c2c(c(C([H])([H])C3([H])C([H])([H])C4([H])C5([H])C([H])([H])C6([H])C([H])(C54[H])C6([H])[N+]3([H])[H])nn2[H])c1[H]

$$$$
76:0:1
     RDKit          3D

 40 45  0  0  1  0  0  0  0  0999 V2000
   -0.0856   -1.3072    4.5107 C   0  0  0  0  0  0  0  0  0  0  0  0
    0.6313   -2.5138    4.4179 C   0  0  0  0  0  0  0  0  0  0  0  0
    1.7200   -2.6343    3.5187 C   0  0  0  0  0  0  0  0  0  0  0  0
    2.1138   -1.5483    2.6995 C   0  0  0  0  0  0  0  0  0  0  0  0
    3.1323   -1.2831    1.7109 C   0  0  0  0  0  0  0  0  0  0  0  0
    4.1982   -2.2066    1.1926 C   0  0  0  0  0  0  0  0  0  0  0  0
    3.7084   -3.2082    0.1241 C   0  0  2  0  0  0  0  0  0  0  0  0
    4.7498   -4.2487   -0.3112 C   0  0  0  0  0  0  0  0  0  0  0  0
    5.9971   -3.7126   -0.9904 C   0  0  1  0  0  0  0  0  0  0  0  0
    6.0373   -3.4947   -2.4866 C   0  0  1  0  0  0  0  0  0  0  0  0
    4.8091   -3.3459   -3.3557 C   0  0  0  0  0  0  0  0  0  0  0  0
    4.2787   -1.9577   -3.0682 C   0  0  1  0  0  0  0  0  0  0  0  0
    3.5916   -1.5141   -1.8045 C   0  0  1  0  0  0  0  0  0  0  0  0
    3.0004   -2.6215   -1.0319 N   0  0  0  0  0  0  0  0  0  0  0  0
    5.0782   -1.3509   -1.9225 C   0  0  1  0  0  0  0  0  0  0  0  0
    6.1642   -2.3238   -1.5543 C   0  0  1  0  0  0  0  0  0  0  0  0
    3.0363   -0.0544    1.2637 N   0  0  0  0  0  0  0  0  0  0  0  0
    1.9794    0.5036    1.9103 N   0  0  0  0  0  0  0  0  0  0  0  0
    1.3714   -0.3479    2.8127 C   0  0  0  0  0  0  0  0  0  0  0  0
    0.2806   -0.2132    3.7012 C   0  0  0  0  0  0  0  0  0  0  0  0
    1.7000    1.4536    1.7093 H   0  0  0  0  0  0  0  0  0  0  0  0
   -0.9152   -1.2126    5.2016 H   0  0  0  0  0  0  0  0  0  0  0  0
    0.3570   -3.3575    5.0392 H   0  0  0  0  0  0  0  0  0  0  0  0
    2.2632   -3.5625    3.4643 H   0  0  0  0  0  0  0  0  0  0  0  0
    4.6109   -2.7635    2.0347 H   0  0  0  0  0  0  0  0  0  0  0  0
    5.0266   -1.6188    0.8004 H   0  0  0  0  0  0  0  0  0  0  0  0
    2.9459   -3.7970    0.6196 H   0  0  0  0  0  0  0  0  0  0  0  0
    5.0819   -4.8019    0.5693 H   0  0  0  0  0  0  0  0  0  0  0  0
    4.3023   -5.0006   -0.9634 H   0  0  0  0  0  0  0  0  0  0  0  0
    6.9126   -4.1188   -0.5617 H   0  0  0  0  0  0  0  0  0  0  0  0
    6.9339   -3.8189   -2.9930 H   0  0  0  0  0  0  0  0  0  0  0  0
    5.0519   -3.4557   -4.4099 H   0  0  0  0  0  0  0  0  0  0  0  0
    4.0673   -4.1053   -3.1205 H   0  0  0  0  0  0  0  0  0  0  0  0
    4.1676   -1.3207   -3.9394 H   0  0  0  0  0  0  0  0  0  0  0  0
    2.9251   -0.6561   -1.8846 H   0  0  0  0  0  0  0  0  0  0  0  0
    2.6861   -3.3515   -1.6561 H   0  0  0  0  0  0  0  0  0  0  0  0
    5.4029   -0.3259   -2.0828 H   0  0  0  0  0  0  0  0  0  0  0  0
    7.1607   -1.9124   -1.4524 H   0  0  0  0  0  0  0  0  0  0  0  0
   -0.2544    0.7184    3.7561 H   0  0  0  0  0  0  0  0  0  0  0  0
    2.1723   -2.1558   -0.6644 H   0  0  0  0  0  0  0  0  0  0  0  0
  1 20  2  0
  1 22  1  0
  1  2  1  0
  2 23  1  0
  2  3  2  0
  3 24  1  0
  3  4  1  0
  4 19  2  0
  4  5  1  0
  5 17  2  0
  5  6  1  0
  6  7  1  0
  6 25  1  0
  6 26  1  0
  7 14  1  0
  7  8  1  0
  7 27  1  1
  8  9  1  0
  8 28  1  0
  8 29  1  0
  9 16  1  0
  9 10  1  0
  9 30  1  1
 10 16  1  0
 10 11  1  0
 10 31  1  6
 11 12  1  0
 11 32  1  0
 11 33  1  0
 12 15  1  0
 12 13  1  0
 12 34  1  6
 13 14  1  0
 13 15  1  0
 13 35  1  6
 14 36  1  0
 14 40  1  0
 15 16  1  0
 15 37  1  6
 16 38  1  1
 17 18  1  0
 18 21  1  0
 18 19  1  0
 19 20  1  0
 20 39  1  0
M  CHG  1  14   1
M  END
>  <i_m_ct_stereo_status>  (262) 
1

>  <s_m_source_file>  (262) 
/var/tmp/pbs.5083858.sched01/tmpnl70wwuf/105f9iu2hp5.sdf

>  <i_m_source_file_index>  (262) 
4

>  <i_lp_mmshare_version>  (262) 
48012

>  <i_f3d_flags>  (262) 
0

>  <s_epik_input>  (262) 
W2NIXTFbY0hdW2NIXVtjSF1jKGMxMiluW25IXWMyW0NIMl1bQ0BIXShbQ0gyXTMpW05IXVtDQEBIXTRbQ0BIXShbQ0gyXTUpW0NAQEhdNFtDQEBIXTZbQ0BIXTVbQ0BIXTM2

>  <s_epik_cmdline>  (262) 
J2VwaWtfcHl0aG9uJywgJy1waHQnLCAnMi4wJywgJy1waCcsICc3LjAnLCAnLXRuJywgJzgnLCAnLW1hJywgJzIwMCcsICctaW1hZScsICc8aW5maWxlLm1hZT4nLCAnLW9tYWUnLCAnPG91dGZpbGUubWFlPic=

>  <r_lp_tautomer_probability>  (262) 
0.980392

>  <r_epik_Ionization_Penalty>  (262) 
0.0174862

>  <r_epik_Ionization_Penalty_Charging>  (262) 
0.0174847

>  <r_epik_Ionization_Penalty_Neutral>  (262) 
1.49876e-06

>  <r_epik_State_Penalty>  (262) 
0.0235121

>  <r_epik_Charging_Adjusted_Penalty>  (262) 
0.0409968

>  <i_epik_Tot_Q>  (262) 
1

>  <i_epik_Tot_abs_Q>  (262) 
1

>  <s_lp_Force_Field>  (262) 
OPLS3e

>  <r_lp_Energy>  (262) 
43.968

>  <b_lp_Chiralities_Consistent>  (262) 
1

>  <s_lp_Variant>  (262) 
76:0-1

>  <s_i_glide_gridfile>  (262) 
pfpi4k_grid

>  <i_i_glide_lignum>  (262) 
4

>  <i_i_glide_rotatable_bonds>  (262) 
2

>  <r_i_docking_score>  (262) 
-3.74902

>  <r_i_glide_ligand_efficiency>  (262) 
-0.187451

>  <r_i_glide_ligand_efficiency_sa>  (262) 
-0.508821

>  <r_i_glide_ligand_efficiency_ln>  (262) 
-0.938257

>  <r_i_glide_gscore>  (262) 
-3.74902

>  <r_i_glide_lipo>  (262) 
-0.758022

>  <r_i_glide_hbond>  (262) 
-0.2

>  <r_i_glide_metal>  (262) 
-0

>  <r_i_glide_rewards>  (262) 
-1.59299

>  <r_i_glide_evdw>  (262) 
-20.7891

>  <r_i_glide_ecoul>  (262) 
-3.78224

>  <r_i_glide_erotb>  (262) 
0.502131

>  <r_i_glide_esite>  (262) 
-0.0933463

>  <r_i_glide_emodel>  (262) 
-32.8893

>  <r_i_glide_energy>  (262) 
-24.5713

>  <r_i_glide_einternal>  (262) 
1.9218

>  <r_i_glide_intrahb_reward>  (262) 
-0

>  <i_i_glide_confnum>  (262) 
5

>  <i_i_glide_posenum>  (262) 
2

>  <r_i_glide_eff_state_penalty>  (262) 
0

>  <ligand_id>  (262) 
76

>  <original_smiles>  (262) 
c1ccc2c(CC3CC4C5CC6C(N3)C6C45)[nH]nc2c1

>  <smiles>  (262) 
[H]c1c([H])c([H])c2c(c(C([H])([H])C3([H])C([H])([H])C4([H])C5([H])C([H])([H])C6([H])C([H])(C54[H])C6([H])[N+]3([H])[H])nn2[H])c1[H]

$$$$
76:0:2
     RDKit          3D

 40 45  0  0  1  0  0  0  0  0999 V2000
    4.1356   -2.6283   -0.6371 C   0  0  0  0  0  0  0  0  0  0  0  0
    4.6636   -1.3290   -0.5239 C   0  0  0  0  0  0  0  0  0  0  0  0
    4.2250   -0.4624    0.5063 C   0  0  0  0  0  0  0  0  0  0  0  0
    3.2441   -0.8698    1.4380 C   0  0  0  0  0  0  0  0  0  0  0  0
    2.5524   -0.3029    2.5737 C   0  0  0  0  0  0  0  0  0  0  0  0
    2.7165    1.0592    3.1858 C   0  0  0  0  0  0  0  0  0  0  0  0
    1.9357    2.1722    2.4581 C   0  0  2  0  0  0  0  0  0  0  0  0
    2.2784    3.5979    2.9082 C   0  0  0  0  0  0  0  0  0  0  0  0
    1.9562    3.9477    4.3500 C   0  0  1  0  0  0  0  0  0  0  0  0
    0.5971    4.4737    4.7380 C   0  0  1  0  0  0  0  0  0  0  0  0
   -0.6599    4.2779    3.9199 C   0  0  0  0  0  0  0  0  0  0  0  0
   -1.0550    2.8208    4.0794 C   0  0  1  0  0  0  0  0  0  0  0  0
   -0.3523    1.6279    3.4861 C   0  0  1  0  0  0  0  0  0  0  0  0
    0.4818    1.9535    2.3041 N   0  0  0  0  0  0  0  0  0  0  0  0
    0.0336    2.1107    4.8631 C   0  0  1  0  0  0  0  0  0  0  0  0
    1.0639    3.1420    5.2629 C   0  0  1  0  0  0  0  0  0  0  0  0
    1.6870   -1.1547    3.0699 N   0  0  0  0  0  0  0  0  0  0  0  0
    1.8202   -2.2849    2.3336 N   0  0  0  0  0  0  0  0  0  0  0  0
    2.7334   -2.1856    1.3055 C   0  0  0  0  0  0  0  0  0  0  0  0
    3.1654   -3.0648    0.2853 C   0  0  0  0  0  0  0  0  0  0  0  0
    1.2530   -3.0943    2.5420 H   0  0  0  0  0  0  0  0  0  0  0  0
    4.4693   -3.2925   -1.4268 H   0  0  0  0  0  0  0  0  0  0  0  0
    5.4028   -0.9827   -1.2313 H   0  0  0  0  0  0  0  0  0  0  0  0
    4.6277    0.5331    0.5669 H   0  0  0  0  0  0  0  0  0  0  0  0
    3.7776    1.3109    3.1798 H   0  0  0  0  0  0  0  0  0  0  0  0
    2.4358    1.0254    4.2399 H   0  0  0  0  0  0  0  0  0  0  0  0
    2.2610    2.1255    1.4304 H   0  0  0  0  0  0  0  0  0  0  0  0
    3.3503    3.7535    2.7740 H   0  0  0  0  0  0  0  0  0  0  0  0
    1.8134    4.3394    2.2605 H   0  0  0  0  0  0  0  0  0  0  0  0
    2.7912    4.4219    4.8610 H   0  0  0  0  0  0  0  0  0  0  0  0
    0.5776    5.3019    5.4356 H   0  0  0  0  0  0  0  0  0  0  0  0
   -1.4590    4.9194    4.2902 H   0  0  0  0  0  0  0  0  0  0  0  0
   -0.4822    4.5240    2.8835 H   0  0  0  0  0  0  0  0  0  0  0  0
   -2.0656    2.6688    4.4417 H   0  0  0  0  0  0  0  0  0  0  0  0
   -0.9227    0.7056    3.3843 H   0  0  0  0  0  0  0  0  0  0  0  0
    0.1046    2.7497    1.7884 H   0  0  0  0  0  0  0  0  0  0  0  0
   -0.3239    1.4938    5.6825 H   0  0  0  0  0  0  0  0  0  0  0  0
    1.3618    3.1303    6.3062 H   0  0  0  0  0  0  0  0  0  0  0  0
    2.7517   -4.0546    0.2025 H   0  0  0  0  0  0  0  0  0  0  0  0
    0.4098    1.1352    1.7140 H   0  0  0  0  0  0  0  0  0  0  0  0
  1 20  2  0
  1 22  1  0
  1  2  1  0
  2 23  1  0
  2  3  2  0
  3 24  1  0
  3  4  1  0
  4 19  2  0
  4  5  1  0
  5 17  2  0
  5  6  1  0
  6  7  1  0
  6 25  1  0
  6 26  1  0
  7 14  1  0
  7  8  1  0
  7 27  1  6
  8  9  1  0
  8 28  1  0
  8 29  1  0
  9 16  1  0
  9 10  1  0
  9 30  1  1
 10 16  1  0
 10 11  1  0
 10 31  1  1
 11 12  1  0
 11 32  1  0
 11 33  1  0
 12 15  1  0
 12 13  1  0
 12 34  1  1
 13 14  1  0
 13 15  1  0
 13 35  1  1
 14 36  1  0
 14 40  1  0
 15 16  1  0
 15 37  1  1
 16 38  1  1
 17 18  1  0
 18 21  1  0
 18 19  1  0
 19 20  1  0
 20 39  1  0
M  CHG  1  14   1
M  END
>  <i_m_ct_stereo_status>  (263) 
1

>  <s_m_source_file>  (263) 
/var/tmp/pbs.5083858.sched01/tmpnl70wwuf/105f9iu2hp5.sdf

>  <i_m_source_file_index>  (263) 
4

>  <i_lp_mmshare_version>  (263) 
48012

>  <i_f3d_flags>  (263) 
0

>  <s_epik_input>  (263) 
W2NIXTFbY0hdW2NIXVtjSF1jKGMxMiluW25IXWMyW0NIMl1bQ0BIXShbQ0gyXTMpW05IXVtDQEBIXTRbQ0BIXShbQ0gyXTUpW0NAQEhdNFtDQEBIXTZbQ0BIXTVbQ0BIXTM2

>  <s_epik_cmdline>  (263) 
J2VwaWtfcHl0aG9uJywgJy1waHQnLCAnMi4wJywgJy1waCcsICc3LjAnLCAnLXRuJywgJzgnLCAnLW1hJywgJzIwMCcsICctaW1hZScsICc8aW5maWxlLm1hZT4nLCAnLW9tYWUnLCAnPG91dGZpbGUubWFlPic=

>  <r_lp_tautomer_probability>  (263) 
0.980392

>  <r_epik_Ionization_Penalty>  (263) 
0.0174862

>  <r_epik_Ionization_Penalty_Charging>  (263) 
0.0174847

>  <r_epik_Ionization_Penalty_Neutral>  (263) 
1.49876e-06

>  <r_epik_State_Penalty>  (263) 
0.0235121

>  <r_epik_Charging_Adjusted_Penalty>  (263) 
0.0409968

>  <i_epik_Tot_Q>  (263) 
1

>  <i_epik_Tot_abs_Q>  (263) 
1

>  <s_lp_Force_Field>  (263) 
OPLS3e

>  <r_lp_Energy>  (263) 
43.968

>  <b_lp_Chiralities_Consistent>  (263) 
1

>  <s_lp_Variant>  (263) 
76:0-1

>  <s_i_glide_gridfile>  (263) 
pfpi4k_grid

>  <i_i_glide_lignum>  (263) 
4

>  <i_i_glide_rotatable_bonds>  (263) 
2

>  <r_i_docking_score>  (263) 
-3.30155

>  <r_i_glide_ligand_efficiency>  (263) 
-0.165077

>  <r_i_glide_ligand_efficiency_sa>  (263) 
-0.448089

>  <r_i_glide_ligand_efficiency_ln>  (263) 
-0.826269

>  <r_i_glide_gscore>  (263) 
-3.30155

>  <r_i_glide_lipo>  (263) 
-0.123616

>  <r_i_glide_hbond>  (263) 
-0.2

>  <r_i_glide_metal>  (263) 
-0

>  <r_i_glide_rewards>  (263) 
-1.59299

>  <r_i_glide_evdw>  (263) 
-17.3676

>  <r_i_glide_ecoul>  (263) 
-6.12738

>  <r_i_glide_erotb>  (263) 
0.502131

>  <r_i_glide_esite>  (263) 
-0.0995811

>  <r_i_glide_emodel>  (263) 
-30.8112

>  <r_i_glide_energy>  (263) 
-23.495

>  <r_i_glide_einternal>  (263) 
1.79916

>  <r_i_glide_intrahb_reward>  (263) 
-0

>  <i_i_glide_confnum>  (263) 
5

>  <i_i_glide_posenum>  (263) 
11

>  <r_i_glide_eff_state_penalty>  (263) 
0

>  <ligand_id>  (263) 
76

>  <original_smiles>  (263) 
c1ccc2c(CC3CC4C5CC6C(N3)C6C45)[nH]nc2c1

>  <smiles>  (263) 
[H]c1c([H])c([H])c2c(c(C([H])([H])C3([H])C([H])([H])C4([H])C5([H])C([H])([H])C6([H])C([H])(C54[H])C6([H])[N+]3([H])[H])nn2[H])c1[H]

$$$$
76:1:0
     RDKit          3D

 39 44  0  0  1  0  0  0  0  0999 V2000
   -4.8943  -12.5841   -6.4243 C   0  0  0  0  0  0  0  0  0  0  0  0
   -6.1931  -12.4246   -6.9318 C   0  0  0  0  0  0  0  0  0  0  0  0
   -6.8209  -11.1594   -6.9080 C   0  0  0  0  0  0  0  0  0  0  0  0
   -6.1437  -10.0101   -6.4382 C   0  0  0  0  0  0  0  0  0  0  0  0
   -6.4151   -8.6026   -6.3104 C   0  0  0  0  0  0  0  0  0  0  0  0
   -7.6577   -7.8658   -6.7301 C   0  0  0  0  0  0  0  0  0  0  0  0
   -7.7352   -7.6033   -8.2496 C   0  0  2  0  0  0  0  0  0  0  0  0
   -8.5663   -6.3810   -8.6867 C   0  0  0  0  0  0  0  0  0  0  0  0
  -10.0593   -6.4035   -8.3967 C   0  0  1  0  0  0  0  0  0  0  0  0
  -11.0428   -7.0433   -9.3561 C   0  0  1  0  0  0  0  0  0  0  0  0
  -10.6754   -8.0859  -10.3956 C   0  0  0  0  0  0  0  0  0  0  0  0
  -10.4189   -9.3532   -9.6198 C   0  0  1  0  0  0  0  0  0  0  0  0
   -9.1872   -9.5922   -8.8036 C   0  0  1  0  0  0  0  0  0  0  0  0
   -8.0027   -8.7757   -9.0824 N   0  0  0  0  0  0  0  0  0  0  0  0
  -10.4408   -9.0581   -8.1337 C   0  0  1  0  0  0  0  0  0  0  0  0
  -10.8487   -7.6144   -7.9676 C   0  0  1  0  0  0  0  0  0  0  0  0
   -5.3890   -7.9804   -5.7659 N   0  0  0  0  0  0  0  0  0  0  0  0
   -4.4542   -8.9323   -5.5110 N   0  0  0  0  0  0  0  0  0  0  0  0
   -4.8291  -10.2022   -5.9274 C   0  0  0  0  0  0  0  0  0  0  0  0
   -4.2028  -11.4659   -5.9136 C   0  0  0  0  0  0  0  0  0  0  0  0
   -3.5816   -8.6863   -5.0573 H   0  0  0  0  0  0  0  0  0  0  0  0
   -4.4370  -13.5671   -6.3935 H   0  0  0  0  0  0  0  0  0  0  0  0
   -6.7396  -13.2718   -7.3261 H   0  0  0  0  0  0  0  0  0  0  0  0
   -7.8374  -11.0803   -7.2375 H   0  0  0  0  0  0  0  0  0  0  0  0
   -7.6968   -6.9075   -6.2123 H   0  0  0  0  0  0  0  0  0  0  0  0
   -8.5319   -8.4162   -6.4047 H   0  0  0  0  0  0  0  0  0  0  0  0
   -6.7210   -7.3282   -8.5279 H   0  0  0  0  0  0  0  0  0  0  0  0
   -8.1625   -5.5024   -8.1840 H   0  0  0  0  0  0  0  0  0  0  0  0
   -8.4249   -6.1886   -9.7525 H   0  0  0  0  0  0  0  0  0  0  0  0
  -10.4110   -5.4742   -7.9548 H   0  0  0  0  0  0  0  0  0  0  0  0
  -11.9799   -6.5250   -9.5329 H   0  0  0  0  0  0  0  0  0  0  0  0
  -11.4946   -8.2512  -11.0911 H   0  0  0  0  0  0  0  0  0  0  0  0
   -9.7872   -7.8006  -10.9542 H   0  0  0  0  0  0  0  0  0  0  0  0
  -10.9420  -10.2438   -9.9598 H   0  0  0  0  0  0  0  0  0  0  0  0
   -9.0393  -10.6666   -8.7119 H   0  0  0  0  0  0  0  0  0  0  0  0
   -7.1815   -9.3629   -9.0399 H   0  0  0  0  0  0  0  0  0  0  0  0
  -10.9748   -9.7738   -7.5109 H   0  0  0  0  0  0  0  0  0  0  0  0
  -11.6524   -7.4316   -7.2564 H   0  0  0  0  0  0  0  0  0  0  0  0
   -3.2242  -11.5797   -5.4792 H   0  0  0  0  0  0  0  0  0  0  0  0
  1 20  2  0
  1 22  1  0
  1  2  1  0
  2 23  1  0
  2  3  2  0
  3 24  1  0
  3  4  1  0
  4 19  2  0
  4  5  1  0
  5 17  2  0
  5  6  1  0
  6  7  1  0
  6 25  1  0
  6 26  1  0
  7 14  1  0
  7  8  1  0
  7 27  1  6
  8  9  1  0
  8 28  1  0
  8 29  1  0
  9 16  1  0
  9 10  1  0
  9 30  1  1
 10 16  1  0
 10 11  1  0
 10 31  1  6
 11 12  1  0
 11 32  1  0
 11 33  1  0
 12 15  1  0
 12 13  1  0
 12 34  1  1
 13 14  1  0
 13 15  1  0
 13 35  1  1
 14 36  1  0
 15 16  1  0
 15 37  1  1
 16 38  1  1
 17 18  1  0
 18 21  1  0
 18 19  1  0
 19 20  1  0
 20 39  1  0
M  END
>  <i_m_ct_stereo_status>  (264) 
1

>  <s_m_source_file>  (264) 
/var/tmp/pbs.5083858.sched01/tmpnl70wwuf/105f9iu2hp5.sdf

>  <i_m_source_file_index>  (264) 
5

>  <i_lp_mmshare_version>  (264) 
48012

>  <i_f3d_flags>  (264) 
0

>  <s_epik_input>  (264) 
W2NIXTFbY0hdW2NIXVtjSF1jKGMxMiluW25IXWMyW0NIMl1bQ0BIXShbQ0gyXTMpW05IXVtDQEBIXTRbQ0BIXShbQ0gyXTUpW0NAQEhdNFtDQEBIXTZbQ0BIXTVbQ0BIXTM2

>  <s_epik_cmdline>  (264) 
J2VwaWtfcHl0aG9uJywgJy1waHQnLCAnMi4wJywgJy1waCcsICc3LjAnLCAnLXRuJywgJzgnLCAnLW1hJywgJzIwMCcsICctaW1hZScsICc8aW5maWxlLm1hZT4nLCAnLW9tYWUnLCAnPG91dGZpbGUubWFlPic=

>  <r_lp_tautomer_probability>  (264) 
0.980392

>  <r_epik_Ionization_Penalty>  (264) 
2.09606

>  <r_epik_Ionization_Penalty_Charging>  (264) 
0

>  <r_epik_Ionization_Penalty_Neutral>  (264) 
2.09606

>  <r_epik_State_Penalty>  (264) 
2.18418

>  <r_epik_Charging_Adjusted_Penalty>  (264) 
2.18418

>  <i_epik_Tot_Q>  (264) 
0

>  <i_epik_Tot_abs_Q>  (264) 
0

>  <s_lp_Force_Field>  (264) 
OPLS3e

>  <r_lp_Energy>  (264) 
41.2445

>  <b_lp_Chiralities_Consistent>  (264) 
1

>  <s_lp_Variant>  (264) 
76:0-2

>  <s_i_glide_gridfile>  (264) 
pfpi4k_grid

>  <i_i_glide_lignum>  (264) 
5

>  <i_i_glide_rotatable_bonds>  (264) 
2

>  <r_i_docking_score>  (264) 
-4.04818

>  <r_i_glide_ligand_efficiency>  (264) 
-0.202409

>  <r_i_glide_ligand_efficiency_sa>  (264) 
-0.549423

>  <r_i_glide_ligand_efficiency_ln>  (264) 
-1.01313

>  <r_i_glide_gscore>  (264) 
-4.04818

>  <r_i_glide_lipo>  (264) 
-1.22684

>  <r_i_glide_hbond>  (264) 
0

>  <r_i_glide_metal>  (264) 
-0

>  <r_i_glide_rewards>  (264) 
-1.79987

>  <r_i_glide_evdw>  (264) 
-23.5365

>  <r_i_glide_ecoul>  (264) 
-2.33384

>  <r_i_glide_erotb>  (264) 
0.505429

>  <r_i_glide_esite>  (264) 
0

>  <r_i_glide_emodel>  (264) 
-30.5665

>  <r_i_glide_energy>  (264) 
-25.8703

>  <r_i_glide_einternal>  (264) 
1.92657

>  <r_i_glide_intrahb_reward>  (264) 
-0

>  <i_i_glide_confnum>  (264) 
1

>  <i_i_glide_posenum>  (264) 
35

>  <r_i_glide_eff_state_penalty>  (264) 
0

>  <ligand_id>  (264) 
76

>  <original_smiles>  (264) 
c1ccc2c(CC3CC4C5CC6C(N3)C6C45)[nH]nc2c1

>  <smiles>  (264) 
[H]c1c([H])c([H])c2c(c(C([H])([H])C3([H])N([H])C4([H])C5([H])C([H])([H])C6([H])C([H])(C3([H])[H])C6([H])C45[H])nn2[H])c1[H]

$$$$
76:1:1
     RDKit          3D

 39 44  0  0  1  0  0  0  0  0999 V2000
    5.9456   -8.8207    3.1446 C   0  0  0  0  0  0  0  0  0  0  0  0
    6.9339   -7.9906    2.5795 C   0  0  0  0  0  0  0  0  0  0  0  0
    6.5744   -6.9433    1.6994 C   0  0  0  0  0  0  0  0  0  0  0  0
    5.2235   -6.7147    1.3451 C   0  0  0  0  0  0  0  0  0  0  0  0
    4.4820   -5.8205    0.5017 C   0  0  0  0  0  0  0  0  0  0  0  0
    4.9972   -4.6825   -0.3429 C   0  0  0  0  0  0  0  0  0  0  0  0
    4.2561   -3.3359   -0.0971 C   0  0  2  0  0  0  0  0  0  0  0  0
    2.7568   -3.2533   -0.4701 C   0  0  0  0  0  0  0  0  0  0  0  0
    2.4022   -3.5288   -1.9214 C   0  0  1  0  0  0  0  0  0  0  0  0
    2.3359   -2.4311   -2.9357 C   0  0  1  0  0  0  0  0  0  0  0  0
    3.0523   -1.1109   -2.7570 C   0  0  0  0  0  0  0  0  0  0  0  0
    4.5314   -1.3865   -2.9687 C   0  0  1  0  0  0  0  0  0  0  0  0
    5.4047   -2.1258   -1.9830 C   0  0  1  0  0  0  0  0  0  0  0  0
    4.9720   -2.1600   -0.5872 N   0  0  0  0  0  0  0  0  0  0  0  0
    4.7324   -2.8811   -3.1115 C   0  0  1  0  0  0  0  0  0  0  0  0
    3.3652   -3.5220   -3.0957 C   0  0  1  0  0  0  0  0  0  0  0  0
    3.2059   -6.1370    0.5143 N   0  0  0  0  0  0  0  0  0  0  0  0
    3.0615   -7.1347    1.4095 N   0  0  0  0  0  0  0  0  0  0  0  0
    4.2546   -7.5723    1.9406 C   0  0  0  0  0  0  0  0  0  0  0  0
    4.5861   -8.5953    2.8269 C   0  0  0  0  0  0  0  0  0  0  0  0
    2.1468   -7.5055    1.6339 H   0  0  0  0  0  0  0  0  0  0  0  0
    6.2199   -9.6255    3.8187 H   0  0  0  0  0  0  0  0  0  0  0  0
    7.9853   -8.1567    2.8086 H   0  0  0  0  0  0  0  0  0  0  0  0
    7.3412   -6.3242    1.2645 H   0  0  0  0  0  0  0  0  0  0  0  0
    4.9676   -4.9790   -1.3893 H   0  0  0  0  0  0  0  0  0  0  0  0
    6.0522   -4.5335   -0.1128 H   0  0  0  0  0  0  0  0  0  0  0  0
    4.2930   -3.1893    0.9796 H   0  0  0  0  0  0  0  0  0  0  0  0
    2.1839   -3.9687    0.1157 H   0  0  0  0  0  0  0  0  0  0  0  0
    2.3409   -2.2875   -0.1788 H   0  0  0  0  0  0  0  0  0  0  0  0
    1.6099   -4.2538   -2.0190 H   0  0  0  0  0  0  0  0  0  0  0  0
    1.5037   -2.4563   -3.6386 H   0  0  0  0  0  0  0  0  0  0  0  0
    2.6889   -0.3908   -3.4838 H   0  0  0  0  0  0  0  0  0  0  0  0
    2.8786   -0.7069   -1.7615 H   0  0  0  0  0  0  0  0  0  0  0  0
    5.0180   -0.7635   -3.7136 H   0  0  0  0  0  0  0  0  0  0  0  0
    6.4681   -2.0117   -2.1616 H   0  0  0  0  0  0  0  0  0  0  0  0
    5.7532   -1.9606    0.0229 H   0  0  0  0  0  0  0  0  0  0  0  0
    5.4023   -3.2225   -3.9043 H   0  0  0  0  0  0  0  0  0  0  0  0
    3.1730   -4.2215   -3.9159 H   0  0  0  0  0  0  0  0  0  0  0  0
    3.8223   -9.2323    3.2435 H   0  0  0  0  0  0  0  0  0  0  0  0
  1 20  2  0
  1 22  1  0
  1  2  1  0
  2 23  1  0
  2  3  2  0
  3 24  1  0
  3  4  1  0
  4 19  2  0
  4  5  1  0
  5 17  2  0
  5  6  1  0
  6  7  1  0
  6 25  1  0
  6 26  1  0
  7 14  1  0
  7  8  1  0
  7 27  1  1
  8  9  1  0
  8 28  1  0
  8 29  1  0
  9 16  1  0
  9 10  1  0
  9 30  1  1
 10 16  1  0
 10 11  1  0
 10 31  1  6
 11 12  1  0
 11 32  1  0
 11 33  1  0
 12 15  1  0
 12 13  1  0
 12 34  1  6
 13 14  1  0
 13 15  1  0
 13 35  1  1
 14 36  1  0
 15 16  1  0
 15 37  1  6
 16 38  1  6
 17 18  1  0
 18 21  1  0
 18 19  1  0
 19 20  1  0
 20 39  1  0
M  END
>  <i_m_ct_stereo_status>  (265) 
1

>  <s_m_source_file>  (265) 
/var/tmp/pbs.5083858.sched01/tmpnl70wwuf/105f9iu2hp5.sdf

>  <i_m_source_file_index>  (265) 
5

>  <i_lp_mmshare_version>  (265) 
48012

>  <i_f3d_flags>  (265) 
0

>  <s_epik_input>  (265) 
W2NIXTFbY0hdW2NIXVtjSF1jKGMxMiluW25IXWMyW0NIMl1bQ0BIXShbQ0gyXTMpW05IXVtDQEBIXTRbQ0BIXShbQ0gyXTUpW0NAQEhdNFtDQEBIXTZbQ0BIXTVbQ0BIXTM2

>  <s_epik_cmdline>  (265) 
J2VwaWtfcHl0aG9uJywgJy1waHQnLCAnMi4wJywgJy1waCcsICc3LjAnLCAnLXRuJywgJzgnLCAnLW1hJywgJzIwMCcsICctaW1hZScsICc8aW5maWxlLm1hZT4nLCAnLW9tYWUnLCAnPG91dGZpbGUubWFlPic=

>  <r_lp_tautomer_probability>  (265) 
0.980392

>  <r_epik_Ionization_Penalty>  (265) 
2.09606

>  <r_epik_Ionization_Penalty_Charging>  (265) 
0

>  <r_epik_Ionization_Penalty_Neutral>  (265) 
2.09606

>  <r_epik_State_Penalty>  (265) 
2.18418

>  <r_epik_Charging_Adjusted_Penalty>  (265) 
2.18418

>  <i_epik_Tot_Q>  (265) 
0

>  <i_epik_Tot_abs_Q>  (265) 
0

>  <s_lp_Force_Field>  (265) 
OPLS3e

>  <r_lp_Energy>  (265) 
41.2445

>  <b_lp_Chiralities_Consistent>  (265) 
1

>  <s_lp_Variant>  (265) 
76:0-2

>  <s_i_glide_gridfile>  (265) 
pfpi4k_grid

>  <i_i_glide_lignum>  (265) 
5

>  <i_i_glide_rotatable_bonds>  (265) 
2

>  <r_i_docking_score>  (265) 
-2.72328

>  <r_i_glide_ligand_efficiency>  (265) 
-0.136164

>  <r_i_glide_ligand_efficiency_sa>  (265) 
-0.369607

>  <r_i_glide_ligand_efficiency_ln>  (265) 
-0.681548

>  <r_i_glide_gscore>  (265) 
-2.72328

>  <r_i_glide_lipo>  (265) 
-0.661145

>  <r_i_glide_hbond>  (265) 
0

>  <r_i_glide_metal>  (265) 
-0

>  <r_i_glide_rewards>  (265) 
-1.59987

>  <r_i_glide_evdw>  (265) 
-20.4919

>  <r_i_glide_ecoul>  (265) 
0.379287

>  <r_i_glide_erotb>  (265) 
0.505429

>  <r_i_glide_esite>  (265) 
0

>  <r_i_glide_emodel>  (265) 
-22.957

>  <r_i_glide_energy>  (265) 
-20.1126

>  <r_i_glide_einternal>  (265) 
1.77887

>  <r_i_glide_intrahb_reward>  (265) 
-0

>  <i_i_glide_confnum>  (265) 
5

>  <i_i_glide_posenum>  (265) 
2

>  <r_i_glide_eff_state_penalty>  (265) 
0

>  <ligand_id>  (265) 
76

>  <original_smiles>  (265) 
c1ccc2c(CC3CC4C5CC6C(N3)C6C45)[nH]nc2c1

>  <smiles>  (265) 
[H]c1c([H])c([H])c2c(c(C([H])([H])C3([H])N([H])C4([H])C5([H])C([H])([H])C6([H])C([H])(C3([H])[H])C6([H])C45[H])nn2[H])c1[H]

$$$$
76:1:2
     RDKit          3D

 39 44  0  0  1  0  0  0  0  0999 V2000
    4.0029   -9.3134    2.1149 C   0  0  0  0  0  0  0  0  0  0  0  0
    4.2389   -8.6499    0.8959 C   0  0  0  0  0  0  0  0  0  0  0  0
    4.6652   -7.3050    0.8819 C   0  0  0  0  0  0  0  0  0  0  0  0
    4.8748   -6.5973    2.0885 C   0  0  0  0  0  0  0  0  0  0  0  0
    5.3009   -5.2820    2.4736 C   0  0  0  0  0  0  0  0  0  0  0  0
    5.6966   -4.1452    1.5755 C   0  0  0  0  0  0  0  0  0  0  0  0
    4.6064   -3.0577    1.4804 C   0  0  2  0  0  0  0  0  0  0  0  0
    3.2641   -3.4886    0.8568 C   0  0  0  0  0  0  0  0  0  0  0  0
    3.2812   -3.9442   -0.5920 C   0  0  1  0  0  0  0  0  0  0  0  0
    3.1520   -2.9637   -1.7368 C   0  0  1  0  0  0  0  0  0  0  0  0
    3.4660   -1.4822   -1.6332 C   0  0  0  0  0  0  0  0  0  0  0  0
    4.9724   -1.3747   -1.5465 C   0  0  1  0  0  0  0  0  0  0  0  0
    5.7769   -1.7685   -0.3283 C   0  0  1  0  0  0  0  0  0  0  0  0
    5.0673   -1.7807    0.9451 N   0  0  0  0  0  0  0  0  0  0  0  0
    5.5542   -2.7643   -1.4457 C   0  0  1  0  0  0  0  0  0  0  0  0
    4.4281   -3.7561   -1.5612 C   0  0  1  0  0  0  0  0  0  0  0  0
    5.3188   -5.1585    3.7822 N   0  0  0  0  0  0  0  0  0  0  0  0
    4.9175   -6.3569    4.2779 N   0  0  0  0  0  0  0  0  0  0  0  0
    4.6318   -7.2923    3.3021 C   0  0  0  0  0  0  0  0  0  0  0  0
    4.1977   -8.6317    3.3286 C   0  0  0  0  0  0  0  0  0  0  0  0
    4.8575   -6.5020    5.2763 H   0  0  0  0  0  0  0  0  0  0  0  0
    3.6762  -10.3466    2.1088 H   0  0  0  0  0  0  0  0  0  0  0  0
    4.0918   -9.1829   -0.0309 H   0  0  0  0  0  0  0  0  0  0  0  0
    4.8388   -6.8037   -0.0577 H   0  0  0  0  0  0  0  0  0  0  0  0
    5.9256   -4.5411    0.5883 H   0  0  0  0  0  0  0  0  0  0  0  0
    6.6232   -3.6990    1.9401 H   0  0  0  0  0  0  0  0  0  0  0  0
    4.3572   -2.8034    2.5089 H   0  0  0  0  0  0  0  0  0  0  0  0
    2.8763   -4.3245    1.4378 H   0  0  0  0  0  0  0  0  0  0  0  0
    2.5189   -2.6992    0.9611 H   0  0  0  0  0  0  0  0  0  0  0  0
    2.7320   -4.8716   -0.7193 H   0  0  0  0  0  0  0  0  0  0  0  0
    2.4976   -3.2436   -2.5603 H   0  0  0  0  0  0  0  0  0  0  0  0
    3.0900   -0.9442   -2.4995 H   0  0  0  0  0  0  0  0  0  0  0  0
    3.0173   -1.0487   -0.7399 H   0  0  0  0  0  0  0  0  0  0  0  0
    5.4320   -0.6934   -2.2590 H   0  0  0  0  0  0  0  0  0  0  0  0
    6.7898   -1.3738   -0.3106 H   0  0  0  0  0  0  0  0  0  0  0  0
    5.6446   -1.3410    1.6484 H   0  0  0  0  0  0  0  0  0  0  0  0
    6.4200   -2.9629   -2.0760 H   0  0  0  0  0  0  0  0  0  0  0  0
    4.6121   -4.5687   -2.2623 H   0  0  0  0  0  0  0  0  0  0  0  0
    4.0216   -9.1322    4.2668 H   0  0  0  0  0  0  0  0  0  0  0  0
  1 20  2  0
  1 22  1  0
  1  2  1  0
  2 23  1  0
  2  3  2  0
  3 24  1  0
  3  4  1  0
  4 19  2  0
  4  5  1  0
  5 17  2  0
  5  6  1  0
  6  7  1  0
  6 25  1  0
  6 26  1  0
  7 14  1  0
  7  8  1  0
  7 27  1  1
  8  9  1  0
  8 28  1  0
  8 29  1  0
  9 16  1  0
  9 10  1  0
  9 30  1  1
 10 16  1  0
 10 11  1  0
 10 31  1  6
 11 12  1  0
 11 32  1  0
 11 33  1  0
 12 15  1  0
 12 13  1  0
 12 34  1  6
 13 14  1  0
 13 15  1  0
 13 35  1  1
 14 36  1  0
 15 16  1  0
 15 37  1  6
 16 38  1  6
 17 18  1  0
 18 21  1  0
 18 19  1  0
 19 20  1  0
 20 39  1  0
M  END
>  <i_m_ct_stereo_status>  (266) 
1

>  <s_m_source_file>  (266) 
/var/tmp/pbs.5083858.sched01/tmpnl70wwuf/105f9iu2hp5.sdf

>  <i_m_source_file_index>  (266) 
5

>  <i_lp_mmshare_version>  (266) 
48012

>  <i_f3d_flags>  (266) 
0

>  <s_epik_input>  (266) 
W2NIXTFbY0hdW2NIXVtjSF1jKGMxMiluW25IXWMyW0NIMl1bQ0BIXShbQ0gyXTMpW05IXVtDQEBIXTRbQ0BIXShbQ0gyXTUpW0NAQEhdNFtDQEBIXTZbQ0BIXTVbQ0BIXTM2

>  <s_epik_cmdline>  (266) 
J2VwaWtfcHl0aG9uJywgJy1waHQnLCAnMi4wJywgJy1waCcsICc3LjAnLCAnLXRuJywgJzgnLCAnLW1hJywgJzIwMCcsICctaW1hZScsICc8aW5maWxlLm1hZT4nLCAnLW9tYWUnLCAnPG91dGZpbGUubWFlPic=

>  <r_lp_tautomer_probability>  (266) 
0.980392

>  <r_epik_Ionization_Penalty>  (266) 
2.09606

>  <r_epik_Ionization_Penalty_Charging>  (266) 
0

>  <r_epik_Ionization_Penalty_Neutral>  (266) 
2.09606

>  <r_epik_State_Penalty>  (266) 
2.18418

>  <r_epik_Charging_Adjusted_Penalty>  (266) 
2.18418

>  <i_epik_Tot_Q>  (266) 
0

>  <i_epik_Tot_abs_Q>  (266) 
0

>  <s_lp_Force_Field>  (266) 
OPLS3e

>  <r_lp_Energy>  (266) 
41.2445

>  <b_lp_Chiralities_Consistent>  (266) 
1

>  <s_lp_Variant>  (266) 
76:0-2

>  <s_i_glide_gridfile>  (266) 
pfpi4k_grid

>  <i_i_glide_lignum>  (266) 
5

>  <i_i_glide_rotatable_bonds>  (266) 
2

>  <r_i_docking_score>  (266) 
-2.27334

>  <r_i_glide_ligand_efficiency>  (266) 
-0.113667

>  <r_i_glide_ligand_efficiency_sa>  (266) 
-0.30854

>  <r_i_glide_ligand_efficiency_ln>  (266) 
-0.568943

>  <r_i_glide_gscore>  (266) 
-2.27334

>  <r_i_glide_lipo>  (266) 
-0.200446

>  <r_i_glide_hbond>  (266) 
0

>  <r_i_glide_metal>  (266) 
-0

>  <r_i_glide_rewards>  (266) 
-1.59987

>  <r_i_glide_evdw>  (266) 
-18.3258

>  <r_i_glide_ecoul>  (266) 
-0.414467

>  <r_i_glide_erotb>  (266) 
0.505429

>  <r_i_glide_esite>  (266) 
0

>  <r_i_glide_emodel>  (266) 
-22.0285

>  <r_i_glide_energy>  (266) 
-18.7402

>  <r_i_glide_einternal>  (266) 
0.234933

>  <r_i_glide_intrahb_reward>  (266) 
-0

>  <i_i_glide_confnum>  (266) 
5

>  <i_i_glide_posenum>  (266) 
16

>  <r_i_glide_eff_state_penalty>  (266) 
0

>  <ligand_id>  (266) 
76

>  <original_smiles>  (266) 
c1ccc2c(CC3CC4C5CC6C(N3)C6C45)[nH]nc2c1

>  <smiles>  (266) 
[H]c1c([H])c([H])c2c(c(C([H])([H])C3([H])N([H])C4([H])C5([H])C([H])([H])C6([H])C([H])(C3([H])[H])C6([H])C45[H])nn2[H])c1[H]

$$$$
76:2:0
     RDKit          3D

 40 45  0  0  1  0  0  0  0  0999 V2000
   -9.1223   -3.6239   -6.4404 C   0  0  0  0  0  0  0  0  0  0  0  0
   -8.1784   -3.8817   -5.4226 C   0  0  0  0  0  0  0  0  0  0  0  0
   -7.5066   -5.1364   -5.3179 C   0  0  0  0  0  0  0  0  0  0  0  0
   -7.8397   -6.1060   -6.2862 C   0  0  0  0  0  0  0  0  0  0  0  0
   -7.4543   -7.4208   -6.4923 C   0  0  0  0  0  0  0  0  0  0  0  0
   -6.4743   -8.2746   -5.7354 C   0  0  0  0  0  0  0  0  0  0  0  0
   -5.2601   -8.7604   -6.5833 C   0  0  2  0  0  0  0  0  0  0  0  0
   -5.4990   -8.9700   -8.0906 C   0  0  0  0  0  0  0  0  0  0  0  0
   -6.4650  -10.0751   -8.4689 C   0  0  1  0  0  0  0  0  0  0  0  0
   -6.0134  -11.4902   -8.6662 C   0  0  1  0  0  0  0  0  0  0  0  0
   -4.7045  -12.0304   -8.1513 C   0  0  0  0  0  0  0  0  0  0  0  0
   -4.8956  -12.1913   -6.6579 C   0  0  1  0  0  0  0  0  0  0  0  0
   -4.9899  -11.1157   -5.6046 C   0  0  1  0  0  0  0  0  0  0  0  0
   -4.4040   -9.8235   -5.9836 N   0  0  0  0  0  0  0  0  0  0  0  0
   -6.2452  -11.6159   -6.2625 C   0  0  1  0  0  0  0  0  0  0  0  0
   -6.9291  -11.1499   -7.5216 C   0  0  1  0  0  0  0  0  0  0  0  0
   -8.2346   -7.8654   -7.5541 N   0  0  0  0  0  0  0  0  0  0  0  0
   -9.0098   -6.8725   -8.0796 N   0  0  0  0  0  0  0  0  0  0  0  0
   -8.7582   -5.8440   -7.2675 C   0  0  0  0  0  0  0  0  0  0  0  0
   -9.4200   -4.6073   -7.3908 C   0  0  0  0  0  0  0  0  0  0  0  0
   -8.1659   -8.7740   -7.9926 H   0  0  0  0  0  0  0  0  0  0  0  0
   -9.6202   -2.6475   -6.4951 H   0  0  0  0  0  0  0  0  0  0  0  0
   -7.9496   -3.0956   -4.7229 H   0  0  0  0  0  0  0  0  0  0  0  0
   -6.8172   -5.3282   -4.5177 H   0  0  0  0  0  0  0  0  0  0  0  0
   -6.1170   -7.7870   -4.8225 H   0  0  0  0  0  0  0  0  0  0  0  0
   -7.0211   -9.1530   -5.4153 H   0  0  0  0  0  0  0  0  0  0  0  0
   -4.6153   -7.8892   -6.5858 H   0  0  0  0  0  0  0  0  0  0  0  0
   -5.8485   -8.0392   -8.5435 H   0  0  0  0  0  0  0  0  0  0  0  0
   -4.5812   -9.1149   -8.6209 H   0  0  0  0  0  0  0  0  0  0  0  0
   -7.2195   -9.7663   -9.1934 H   0  0  0  0  0  0  0  0  0  0  0  0
   -6.4553  -12.0080   -9.5044 H   0  0  0  0  0  0  0  0  0  0  0  0
   -4.4972  -12.9961   -8.6150 H   0  0  0  0  0  0  0  0  0  0  0  0
   -3.8825  -11.3495   -8.3348 H   0  0  0  0  0  0  0  0  0  0  0  0
   -4.7129  -13.1966   -6.2918 H   0  0  0  0  0  0  0  0  0  0  0  0
   -4.6885  -11.4459   -4.6133 H   0  0  0  0  0  0  0  0  0  0  0  0
   -3.6273  -10.0128   -6.6010 H   0  0  0  0  0  0  0  0  0  0  0  0
   -6.8517  -12.2690   -5.6398 H   0  0  0  0  0  0  0  0  0  0  0  0
   -7.9636  -11.4537   -7.6419 H   0  0  0  0  0  0  0  0  0  0  0  0
  -10.1342   -4.4599   -8.1762 H   0  0  0  0  0  0  0  0  0  0  0  0
   -4.0361   -9.4501   -5.1314 H   0  0  0  0  0  0  0  0  0  0  0  0
  1 20  2  0
  1  2  1  0
  1 22  1  0
  2  3  2  0
  2 23  1  0
  3  4  1  0
  3 24  1  0
  4 19  1  0
  4  5  2  0
  5  6  1  0
  5 17  1  0
  6  7  1  0
  6 25  1  0
  6 26  1  0
  7 14  1  0
  7  8  1  0
  7 27  1  6
  8  9  1  0
  8 28  1  0
  8 29  1  0
  9 16  1  0
  9 10  1  0
  9 30  1  6
 10 16  1  0
 10 11  1  0
 10 31  1  6
 11 12  1  0
 11 32  1  0
 11 33  1  0
 12 15  1  0
 12 13  1  0
 12 34  1  1
 13 14  1  0
 13 15  1  0
 13 35  1  1
 14 36  1  0
 14 40  1  0
 15 16  1  0
 15 37  1  1
 16 38  1  6
 17 21  1  0
 17 18  1  0
 18 19  2  0
 19 20  1  0
 20 39  1  0
M  CHG  1  14   1
M  END
>  <i_m_ct_stereo_status>  (267) 
1

>  <s_m_source_file>  (267) 
/var/tmp/pbs.5083858.sched01/tmpmxhk20_f/110jarzbz3x.sdf

>  <i_m_source_file_index>  (267) 
1

>  <i_lp_mmshare_version>  (267) 
48012

>  <i_f3d_flags>  (267) 
0

>  <s_epik_input>  (267) 
W2NIXTFbY0hdW2NIXVtjSF1jKGMxMiluW25IXWMyW0NIMl1bQ0BIXShbQ0gyXTMpW05IXVtDQEBIXTRbQ0BIXShbQ0gyXTUpW0NAQEhdNFtDQEBIXTZbQ0BIXTVbQ0BIXTM2

>  <s_epik_cmdline>  (267) 
J2VwaWtfcHl0aG9uJywgJy1waHQnLCAnMi4wJywgJy1waCcsICc3LjAnLCAnLXRuJywgJzgnLCAnLW1hJywgJzIwMCcsICctaW1hZScsICc8aW5maWxlLm1hZT4nLCAnLW9tYWUnLCAnPG91dGZpbGUubWFlPic=

>  <r_lp_tautomer_probability>  (267) 
0.0196078

>  <r_epik_Ionization_Penalty>  (267) 
0.024976

>  <r_epik_Ionization_Penalty_Charging>  (267) 
0.0249692

>  <r_epik_Ionization_Penalty_Neutral>  (267) 
6.75206e-06

>  <r_epik_State_Penalty>  (267) 
2.55413

>  <r_epik_Charging_Adjusted_Penalty>  (267) 
2.5791

>  <i_epik_Tot_Q>  (267) 
1

>  <i_epik_Tot_abs_Q>  (267) 
1

>  <s_lp_Force_Field>  (267) 
OPLS3e

>  <r_lp_Energy>  (267) 
47.9398

>  <b_lp_Chiralities_Consistent>  (267) 
1

>  <s_lp_Variant>  (267) 
76:0-3

>  <s_i_glide_gridfile>  (267) 
pfpi4k_grid

>  <i_i_glide_lignum>  (267) 
1

>  <i_i_glide_rotatable_bonds>  (267) 
2

>  <r_i_docking_score>  (267) 
-5.4902

>  <r_i_glide_ligand_efficiency>  (267) 
-0.27451

>  <r_i_glide_ligand_efficiency_sa>  (267) 
-0.745134

>  <r_i_glide_ligand_efficiency_ln>  (267) 
-1.37402

>  <r_i_glide_gscore>  (267) 
-5.4902

>  <r_i_glide_lipo>  (267) 
-2.46028

>  <r_i_glide_hbond>  (267) 
0

>  <r_i_glide_metal>  (267) 
-0

>  <r_i_glide_rewards>  (267) 
-2.26836

>  <r_i_glide_evdw>  (267) 
-20.1997

>  <r_i_glide_ecoul>  (267) 
-1.69139

>  <r_i_glide_erotb>  (267) 
0.502131

>  <r_i_glide_esite>  (267) 
0

>  <r_i_glide_emodel>  (267) 
-32.4987

>  <r_i_glide_energy>  (267) 
-21.8911

>  <r_i_glide_einternal>  (267) 
1.1226

>  <r_i_glide_intrahb_reward>  (267) 
-0

>  <i_i_glide_confnum>  (267) 
1

>  <i_i_glide_posenum>  (267) 
3

>  <r_i_glide_eff_state_penalty>  (267) 
0

>  <ligand_id>  (267) 
76

>  <original_smiles>  (267) 
c1ccc2c(CC3CC4C5CC6C(N3)C6C45)[nH]nc2c1

>  <smiles>  (267) 
[H]c1c([H])c([H])c2c(C([H])([H])C3([H])C([H])([H])C4([H])C5([H])C([H])([H])C6([H])C([H])(C54[H])C6([H])[N+]3([H])[H])n([H])nc2c1[H]

$$$$
76:2:1
     RDKit          3D

 40 45  0  0  1  0  0  0  0  0999 V2000
   -2.7485    4.2488    9.4158 C   0  0  0  0  0  0  0  0  0  0  0  0
   -1.7313    5.0952    8.8950 C   0  0  0  0  0  0  0  0  0  0  0  0
   -0.9087    4.6625    7.8211 C   0  0  0  0  0  0  0  0  0  0  0  0
   -1.1292    3.3680    7.3018 C   0  0  0  0  0  0  0  0  0  0  0  0
   -0.5339    2.6069    6.2879 C   0  0  0  0  0  0  0  0  0  0  0  0
    0.5818    2.9861    5.3410 C   0  0  0  0  0  0  0  0  0  0  0  0
    0.2131    2.8907    3.8305 C   0  0  2  0  0  0  0  0  0  0  0  0
   -0.5309    1.6413    3.3246 C   0  0  0  0  0  0  0  0  0  0  0  0
    0.2003    0.3245    3.5104 C   0  0  1  0  0  0  0  0  0  0  0  0
    1.0810   -0.2045    2.4151 C   0  0  1  0  0  0  0  0  0  0  0  0
    1.6632    0.6556    1.3194 C   0  0  0  0  0  0  0  0  0  0  0  0
    2.7576    1.4688    1.9673 C   0  0  1  0  0  0  0  0  0  0  0  0
    2.6086    2.6158    2.9310 C   0  0  1  0  0  0  0  0  0  0  0  0
    1.2869    3.2809    2.8811 N   0  0  0  0  0  0  0  0  0  0  0  0
    2.7531    1.2151    3.4651 C   0  0  1  0  0  0  0  0  0  0  0  0
    1.6821    0.1857    3.7428 C   0  0  1  0  0  0  0  0  0  0  0  0
   -1.1711    1.3774    6.3147 N   0  0  0  0  0  0  0  0  0  0  0  0
   -2.1744    1.3303    7.2521 N   0  0  0  0  0  0  0  0  0  0  0  0
   -2.1157    2.5427    7.8265 C   0  0  0  0  0  0  0  0  0  0  0  0
   -2.9507    2.9694    8.8745 C   0  0  0  0  0  0  0  0  0  0  0  0
   -1.0218    0.6289    5.6522 H   0  0  0  0  0  0  0  0  0  0  0  0
   -3.3636    4.5698   10.2465 H   0  0  0  0  0  0  0  0  0  0  0  0
   -1.5947    6.0668    9.3473 H   0  0  0  0  0  0  0  0  0  0  0  0
   -0.1278    5.3016    7.4472 H   0  0  0  0  0  0  0  0  0  0  0  0
    0.9955    3.9758    5.5816 H   0  0  0  0  0  0  0  0  0  0  0  0
    1.3872    2.2883    5.5383 H   0  0  0  0  0  0  0  0  0  0  0  0
   -0.4998    3.6855    3.6941 H   0  0  0  0  0  0  0  0  0  0  0  0
   -1.5003    1.5668    3.8157 H   0  0  0  0  0  0  0  0  0  0  0  0
   -0.8280    1.7408    2.2802 H   0  0  0  0  0  0  0  0  0  0  0  0
   -0.3884   -0.4323    4.0227 H   0  0  0  0  0  0  0  0  0  0  0  0
    1.0082   -1.2601    2.2003 H   0  0  0  0  0  0  0  0  0  0  0  0
    2.1207    0.0494    0.5329 H   0  0  0  0  0  0  0  0  0  0  0  0
    0.8912    1.2910    0.8779 H   0  0  0  0  0  0  0  0  0  0  0  0
    3.7137    1.3351    1.4907 H   0  0  0  0  0  0  0  0  0  0  0  0
    3.4298    3.3161    3.0016 H   0  0  0  0  0  0  0  0  0  0  0  0
    0.9184    3.2894    1.9282 H   0  0  0  0  0  0  0  0  0  0  0  0
    3.7285    0.9895    3.8834 H   0  0  0  0  0  0  0  0  0  0  0  0
    1.9815   -0.6442    4.3777 H   0  0  0  0  0  0  0  0  0  0  0  0
   -3.7061    2.3183    9.2720 H   0  0  0  0  0  0  0  0  0  0  0  0
    1.5025    4.2494    3.0773 H   0  0  0  0  0  0  0  0  0  0  0  0
  1 20  2  0
  1  2  1  0
  1 22  1  0
  2  3  2  0
  2 23  1  0
  3  4  1  0
  3 24  1  0
  4 19  1  0
  4  5  2  0
  5  6  1  0
  5 17  1  0
  6  7  1  0
  6 25  1  0
  6 26  1  0
  7 14  1  0
  7  8  1  0
  7 27  1  1
  8  9  1  0
  8 28  1  0
  8 29  1  0
  9 16  1  0
  9 10  1  0
  9 30  1  1
 10 16  1  0
 10 11  1  0
 10 31  1  6
 11 12  1  0
 11 32  1  0
 11 33  1  0
 12 15  1  0
 12 13  1  0
 12 34  1  6
 13 14  1  0
 13 15  1  0
 13 35  1  1
 14 36  1  0
 14 40  1  0
 15 16  1  0
 15 37  1  1
 16 38  1  1
 17 21  1  0
 17 18  1  0
 18 19  2  0
 19 20  1  0
 20 39  1  0
M  CHG  1  14   1
M  END
>  <i_m_ct_stereo_status>  (268) 
1

>  <s_m_source_file>  (268) 
/var/tmp/pbs.5083858.sched01/tmpmxhk20_f/110jarzbz3x.sdf

>  <i_m_source_file_index>  (268) 
1

>  <i_lp_mmshare_version>  (268) 
48012

>  <i_f3d_flags>  (268) 
0

>  <s_epik_input>  (268) 
W2NIXTFbY0hdW2NIXVtjSF1jKGMxMiluW25IXWMyW0NIMl1bQ0BIXShbQ0gyXTMpW05IXVtDQEBIXTRbQ0BIXShbQ0gyXTUpW0NAQEhdNFtDQEBIXTZbQ0BIXTVbQ0BIXTM2

>  <s_epik_cmdline>  (268) 
J2VwaWtfcHl0aG9uJywgJy1waHQnLCAnMi4wJywgJy1waCcsICc3LjAnLCAnLXRuJywgJzgnLCAnLW1hJywgJzIwMCcsICctaW1hZScsICc8aW5maWxlLm1hZT4nLCAnLW9tYWUnLCAnPG91dGZpbGUubWFlPic=

>  <r_lp_tautomer_probability>  (268) 
0.0196078

>  <r_epik_Ionization_Penalty>  (268) 
0.024976

>  <r_epik_Ionization_Penalty_Charging>  (268) 
0.0249692

>  <r_epik_Ionization_Penalty_Neutral>  (268) 
6.75206e-06

>  <r_epik_State_Penalty>  (268) 
2.55413

>  <r_epik_Charging_Adjusted_Penalty>  (268) 
2.5791

>  <i_epik_Tot_Q>  (268) 
1

>  <i_epik_Tot_abs_Q>  (268) 
1

>  <s_lp_Force_Field>  (268) 
OPLS3e

>  <r_lp_Energy>  (268) 
47.9398

>  <b_lp_Chiralities_Consistent>  (268) 
1

>  <s_lp_Variant>  (268) 
76:0-3

>  <s_i_glide_gridfile>  (268) 
pfpi4k_grid

>  <i_i_glide_lignum>  (268) 
1

>  <i_i_glide_rotatable_bonds>  (268) 
2

>  <r_i_docking_score>  (268) 
-3.78006

>  <r_i_glide_ligand_efficiency>  (268) 
-0.189003

>  <r_i_glide_ligand_efficiency_sa>  (268) 
-0.513033

>  <r_i_glide_ligand_efficiency_ln>  (268) 
-0.946024

>  <r_i_glide_gscore>  (268) 
-3.78006

>  <r_i_glide_lipo>  (268) 
-0.0440214

>  <r_i_glide_hbond>  (268) 
-0.319677

>  <r_i_glide_metal>  (268) 
-0

>  <r_i_glide_rewards>  (268) 
-1.59299

>  <r_i_glide_evdw>  (268) 
-15.8833

>  <r_i_glide_ecoul>  (268) 
-9.36795

>  <r_i_glide_erotb>  (268) 
0.502131

>  <r_i_glide_esite>  (268) 
-0.126141

>  <r_i_glide_emodel>  (268) 
-32.9668

>  <r_i_glide_energy>  (268) 
-25.2512

>  <r_i_glide_einternal>  (268) 
0.11579

>  <r_i_glide_intrahb_reward>  (268) 
-0

>  <i_i_glide_confnum>  (268) 
2

>  <i_i_glide_posenum>  (268) 
10

>  <r_i_glide_eff_state_penalty>  (268) 
0

>  <ligand_id>  (268) 
76

>  <original_smiles>  (268) 
c1ccc2c(CC3CC4C5CC6C(N3)C6C45)[nH]nc2c1

>  <smiles>  (268) 
[H]c1c([H])c([H])c2c(C([H])([H])C3([H])C([H])([H])C4([H])C5([H])C([H])([H])C6([H])C([H])(C54[H])C6([H])[N+]3([H])[H])n([H])nc2c1[H]

$$$$
76:2:2
     RDKit          3D

 40 45  0  0  1  0  0  0  0  0999 V2000
   -2.8152    3.1411   10.1388 C   0  0  0  0  0  0  0  0  0  0  0  0
   -1.6613    2.3136   10.2299 C   0  0  0  0  0  0  0  0  0  0  0  0
   -0.9925    1.8480    9.0573 C   0  0  0  0  0  0  0  0  0  0  0  0
   -1.5129    2.2396    7.7999 C   0  0  0  0  0  0  0  0  0  0  0  0
   -1.1562    2.0150    6.4710 C   0  0  0  0  0  0  0  0  0  0  0  0
   -0.0038    1.2295    5.9301 C   0  0  0  0  0  0  0  0  0  0  0  0
   -0.2864    0.5723    4.5321 C   0  0  2  0  0  0  0  0  0  0  0  0
    0.4653   -0.7267    4.2056 C   0  0  0  0  0  0  0  0  0  0  0  0
    1.9620   -0.6003    4.0891 C   0  0  1  0  0  0  0  0  0  0  0  0
    2.5965   -0.2344    2.7747 C   0  0  1  0  0  0  0  0  0  0  0  0
    1.8796    0.4371    1.6335 C   0  0  0  0  0  0  0  0  0  0  0  0
    1.6944    1.8862    2.0600 C   0  0  1  0  0  0  0  0  0  0  0  0
    0.7552    2.4042    3.1095 C   0  0  1  0  0  0  0  0  0  0  0  0
   -0.3554    1.4868    3.3563 N   0  0  0  0  0  0  0  0  0  0  0  0
    2.1555    2.0392    3.4986 C   0  0  1  0  0  0  0  0  0  0  0  0
    2.7010    0.7025    3.9455 C   0  0  1  0  0  0  0  0  0  0  0  0
   -2.0726    2.7196    5.7082 N   0  0  0  0  0  0  0  0  0  0  0  0
   -3.0023    3.3407    6.4962 N   0  0  0  0  0  0  0  0  0  0  0  0
   -2.6164    3.0504    7.7444 C   0  0  0  0  0  0  0  0  0  0  0  0
   -3.3041    3.5169    8.8778 C   0  0  0  0  0  0  0  0  0  0  0  0
   -2.1577    2.8043    4.7026 H   0  0  0  0  0  0  0  0  0  0  0  0
   -3.3248    3.4791   11.0457 H   0  0  0  0  0  0  0  0  0  0  0  0
   -1.3225    2.0309   11.2364 H   0  0  0  0  0  0  0  0  0  0  0  0
   -0.1285    1.2167    9.1513 H   0  0  0  0  0  0  0  0  0  0  0  0
    0.8772    1.8709    5.8682 H   0  0  0  0  0  0  0  0  0  0  0  0
    0.2603    0.4352    6.6439 H   0  0  0  0  0  0  0  0  0  0  0  0
   -1.2919    0.1926    4.6332 H   0  0  0  0  0  0  0  0  0  0  0  0
    0.2547   -1.4609    4.9883 H   0  0  0  0  0  0  0  0  0  0  0  0
    0.0899   -1.1608    3.2766 H   0  0  0  0  0  0  0  0  0  0  0  0
    2.4978   -1.3566    4.6536 H   0  0  0  0  0  0  0  0  0  0  0  0
    3.4918   -0.7807    2.5124 H   0  0  0  0  0  0  0  0  0  0  0  0
    2.4955    0.3916    0.7467 H   0  0  0  0  0  0  0  0  0  0  0  0
    0.9301   -0.0389    1.4036 H   0  0  0  0  0  0  0  0  0  0  0  0
    2.0714    2.6338    1.3687 H   0  0  0  0  0  0  0  0  0  0  0  0
    0.4710    3.4563    3.0283 H   0  0  0  0  0  0  0  0  0  0  0  0
   -0.5544    0.9746    2.5050 H   0  0  0  0  0  0  0  0  0  0  0  0
    2.8163    2.8908    3.6702 H   0  0  0  0  0  0  0  0  0  0  0  0
    3.6697    0.7339    4.4289 H   0  0  0  0  0  0  0  0  0  0  0  0
   -4.1714    4.1475    8.7942 H   0  0  0  0  0  0  0  0  0  0  0  0
   -1.1146    2.1133    3.5203 H   0  0  0  0  0  0  0  0  0  0  0  0
  1 20  2  0
  1  2  1  0
  1 22  1  0
  2  3  2  0
  2 23  1  0
  3  4  1  0
  3 24  1  0
  4 19  1  0
  4  5  2  0
  5  6  1  0
  5 17  1  0
  6  7  1  0
  6 25  1  0
  6 26  1  0
  7 14  1  0
  7  8  1  0
  7 27  1  1
  8  9  1  0
  8 28  1  0
  8 29  1  0
  9 16  1  0
  9 10  1  0
  9 30  1  1
 10 16  1  0
 10 11  1  0
 10 31  1  6
 11 12  1  0
 11 32  1  0
 11 33  1  0
 12 15  1  0
 12 13  1  0
 12 34  1  6
 13 14  1  0
 13 15  1  0
 13 35  1  6
 14 36  1  0
 14 40  1  0
 15 16  1  0
 15 37  1  6
 16 38  1  1
 17 21  1  0
 17 18  1  0
 18 19  2  0
 19 20  1  0
 20 39  1  0
M  CHG  1  14   1
M  END
>  <i_m_ct_stereo_status>  (269) 
1

>  <s_m_source_file>  (269) 
/var/tmp/pbs.5083858.sched01/tmpmxhk20_f/110jarzbz3x.sdf

>  <i_m_source_file_index>  (269) 
1

>  <i_lp_mmshare_version>  (269) 
48012

>  <i_f3d_flags>  (269) 
0

>  <s_epik_input>  (269) 
W2NIXTFbY0hdW2NIXVtjSF1jKGMxMiluW25IXWMyW0NIMl1bQ0BIXShbQ0gyXTMpW05IXVtDQEBIXTRbQ0BIXShbQ0gyXTUpW0NAQEhdNFtDQEBIXTZbQ0BIXTVbQ0BIXTM2

>  <s_epik_cmdline>  (269) 
J2VwaWtfcHl0aG9uJywgJy1waHQnLCAnMi4wJywgJy1waCcsICc3LjAnLCAnLXRuJywgJzgnLCAnLW1hJywgJzIwMCcsICctaW1hZScsICc8aW5maWxlLm1hZT4nLCAnLW9tYWUnLCAnPG91dGZpbGUubWFlPic=

>  <r_lp_tautomer_probability>  (269) 
0.0196078

>  <r_epik_Ionization_Penalty>  (269) 
0.024976

>  <r_epik_Ionization_Penalty_Charging>  (269) 
0.0249692

>  <r_epik_Ionization_Penalty_Neutral>  (269) 
6.75206e-06

>  <r_epik_State_Penalty>  (269) 
2.55413

>  <r_epik_Charging_Adjusted_Penalty>  (269) 
2.5791

>  <i_epik_Tot_Q>  (269) 
1

>  <i_epik_Tot_abs_Q>  (269) 
1

>  <s_lp_Force_Field>  (269) 
OPLS3e

>  <r_lp_Energy>  (269) 
47.9398

>  <b_lp_Chiralities_Consistent>  (269) 
1

>  <s_lp_Variant>  (269) 
76:0-3

>  <s_i_glide_gridfile>  (269) 
pfpi4k_grid

>  <i_i_glide_lignum>  (269) 
1

>  <i_i_glide_rotatable_bonds>  (269) 
2

>  <r_i_docking_score>  (269) 
-2.94506

>  <r_i_glide_ligand_efficiency>  (269) 
-0.147253

>  <r_i_glide_ligand_efficiency_sa>  (269) 
-0.399707

>  <r_i_glide_ligand_efficiency_ln>  (269) 
-0.737052

>  <r_i_glide_gscore>  (269) 
-2.94506

>  <r_i_glide_lipo>  (269) 
-0.159312

>  <r_i_glide_hbond>  (269) 
0

>  <r_i_glide_metal>  (269) 
-0

>  <r_i_glide_rewards>  (269) 
-1.59299

>  <r_i_glide_evdw>  (269) 
-17.2962

>  <r_i_glide_ecoul>  (269) 
-5.31307

>  <r_i_glide_erotb>  (269) 
0.502131

>  <r_i_glide_esite>  (269) 
-0.0331199

>  <r_i_glide_emodel>  (269) 
-26.5101

>  <r_i_glide_energy>  (269) 
-22.6092

>  <r_i_glide_einternal>  (269) 
3.88497

>  <r_i_glide_intrahb_reward>  (269) 
-0

>  <i_i_glide_confnum>  (269) 
6

>  <i_i_glide_posenum>  (269) 
14

>  <r_i_glide_eff_state_penalty>  (269) 
0

>  <ligand_id>  (269) 
76

>  <original_smiles>  (269) 
c1ccc2c(CC3CC4C5CC6C(N3)C6C45)[nH]nc2c1

>  <smiles>  (269) 
[H]c1c([H])c([H])c2c(C([H])([H])C3([H])C([H])([H])C4([H])C5([H])C([H])([H])C6([H])C([H])(C54[H])C6([H])[N+]3([H])[H])n([H])nc2c1[H]

$$$$
77:0:0
     RDKit          3D

 47 52  0  0  1  0  0  0  0  0999 V2000
    2.2211   -3.2632   -3.1604 C   0  0  0  0  0  0  0  0  0  0  0  0
    3.2826   -3.0767   -2.0903 C   0  0  2  0  0  0  0  0  0  0  0  0
    3.3250   -4.0270   -0.8748 C   0  0  1  0  0  0  0  0  0  0  0  0
    4.6851   -4.8078   -0.6923 C   0  0  0  0  0  0  0  0  0  0  0  0
    5.7887   -4.3760    0.3137 C   0  0  0  0  0  0  0  0  0  0  0  0
    6.4774   -5.2487    1.0712 C   0  0  0  0  0  0  0  0  0  0  0  0
    5.9662   -6.6552    1.2963 C   0  0  0  0  0  0  0  0  0  0  0  0
    4.9605   -6.3615    2.4281 C   0  0  0  0  0  0  0  0  0  0  0  0
    5.3134   -4.9013    2.8425 C   0  0  1  0  0  0  0  0  0  0  0  0
    5.2566   -4.7478    4.2504 O   0  0  0  0  0  0  0  0  0  0  0  0
    6.6133   -4.8416    2.3575 O   0  0  0  0  0  0  0  0  0  0  0  0
    4.5416   -3.7666    2.0349 C   0  0  1  0  0  0  0  0  0  0  0  0
    4.4509   -2.5254    2.7121 N   0  0  2  0  0  0  0  0  0  0  0  0
    3.3220   -1.6817    2.2675 C   0  0  0  0  0  0  0  0  0  0  0  0
    2.2547   -2.3493    1.3163 C   0  0  0  0  0  0  0  0  0  0  0  0
    2.5395   -2.8752   -0.1557 C   0  0  1  0  0  0  0  0  0  0  0  0
    3.0241   -1.9706   -1.1634 N   0  0  1  0  0  0  0  0  0  0  0  0
    4.1727   -1.1600   -0.7619 C   0  0  0  0  0  0  0  0  0  0  0  0
    5.3957   -1.9921   -0.3117 C   0  0  0  0  0  0  0  0  0  0  0  0
    5.4017   -3.0085    0.8879 C   0  0  2  0  0  0  0  0  0  0  0  0
    5.7885   -2.2375    2.1816 C   0  0  0  0  0  0  0  0  0  0  0  0
    2.3878   -4.1809   -3.7178 H   0  0  0  0  0  0  0  0  0  0  0  0
    2.2115   -2.4561   -3.8955 H   0  0  0  0  0  0  0  0  0  0  0  0
    1.2151   -3.3382   -2.7287 H   0  0  0  0  0  0  0  0  0  0  0  0
    4.2722   -2.9917   -2.5503 H   0  0  0  0  0  0  0  0  0  0  0  0
    2.5288   -4.7531   -0.9928 H   0  0  0  0  0  0  0  0  0  0  0  0
    4.4069   -5.8467   -0.5387 H   0  0  0  0  0  0  0  0  0  0  0  0
    5.1760   -4.8458   -1.6613 H   0  0  0  0  0  0  0  0  0  0  0  0
    5.5391   -7.2100    0.4742 H   0  0  0  0  0  0  0  0  0  0  0  0
    6.7956   -7.2449    1.6671 H   0  0  0  0  0  0  0  0  0  0  0  0
    3.9287   -6.4362    2.0834 H   0  0  0  0  0  0  0  0  0  0  0  0
    5.1153   -7.0702    3.2372 H   0  0  0  0  0  0  0  0  0  0  0  0
    5.6657   -5.5179    4.6293 H   0  0  0  0  0  0  0  0  0  0  0  0
    3.6061   -4.2150    1.7220 H   0  0  0  0  0  0  0  0  0  0  0  0
    2.7708   -1.4577    3.1753 H   0  0  0  0  0  0  0  0  0  0  0  0
    3.6353   -0.6934    1.9380 H   0  0  0  0  0  0  0  0  0  0  0  0
    1.8094   -3.1631    1.8829 H   0  0  0  0  0  0  0  0  0  0  0  0
    1.4319   -1.6296    1.2732 H   0  0  0  0  0  0  0  0  0  0  0  0
    1.5370   -3.1368   -0.4931 H   0  0  0  0  0  0  0  0  0  0  0  0
    4.4846   -0.5839   -1.6259 H   0  0  0  0  0  0  0  0  0  0  0  0
    3.9019   -0.4088   -0.0391 H   0  0  0  0  0  0  0  0  0  0  0  0
    5.8411   -2.4582   -1.1941 H   0  0  0  0  0  0  0  0  0  0  0  0
    6.1565   -1.2379   -0.1019 H   0  0  0  0  0  0  0  0  0  0  0  0
    5.9360   -1.1616    2.0667 H   0  0  0  0  0  0  0  0  0  0  0  0
    6.6032   -2.6339    2.7503 H   0  0  0  0  0  0  0  0  0  0  0  0
    2.2221   -1.3832   -1.4479 H   0  0  0  0  0  0  0  0  0  0  0  0
    4.4852   -2.6492    3.7327 H   0  0  0  0  0  0  0  0  0  0  0  0
  1  2  1  0
  1 22  1  0
  1 23  1  0
  1 24  1  0
  2 17  1  0
  2  3  1  0
  2 25  1  6
  3 16  1  0
  3  4  1  0
  3 26  1  6
  4  5  1  0
  4 27  1  0
  4 28  1  0
  5 20  1  0
  5  6  2  0
  6 11  1  0
  6  7  1  0
  7  8  1  0
  7 29  1  0
  7 30  1  0
  8  9  1  0
  8 31  1  0
  8 32  1  0
  9 10  1  1
  9 11  1  0
  9 12  1  0
 10 33  1  0
 12 20  1  0
 12 13  1  0
 12 34  1  6
 13 21  1  0
 13 14  1  0
 13 47  1  1
 14 15  1  0
 14 35  1  0
 14 36  1  0
 15 16  1  0
 15 37  1  0
 15 38  1  0
 16 17  1  0
 16 39  1  6
 17 18  1  0
 17 46  1  6
 18 19  1  0
 18 40  1  0
 18 41  1  0
 19 20  1  0
 19 42  1  0
 19 43  1  0
 20 21  1  1
 21 44  1  0
 21 45  1  0
M  CHG  2  13   1  17   1
M  END
>  <i_m_ct_stereo_status>  (270) 
1

>  <s_m_source_file>  (270) 
/var/tmp/pbs.5083858.sched01/tmpmxhk20_f/110jarzbz3x.sdf

>  <i_m_source_file_index>  (270) 
2

>  <i_lp_mmshare_version>  (270) 
48012

>  <i_f3d_flags>  (270) 
0

>  <s_epik_input>  (270) 
W0NIMl0xW0NIMl1OMltDQEhdKFtDSDNdKVtDQEBIXShbQ0gyXTMpW0NASF0yW0NIMl1bQ0gyXU4oW0NIMl00KVtDQEBIXTVbQ0BAXShPNikoW09IXSlbQ0gyXVtDSDJdQzY9QzNDMTQ1

>  <s_epik_cmdline>  (270) 
J2VwaWtfcHl0aG9uJywgJy1waHQnLCAnMi4wJywgJy1waCcsICc3LjAnLCAnLXRuJywgJzgnLCAnLW1hJywgJzIwMCcsICctaW1hZScsICc8aW5maWxlLm1hZT4nLCAnLW9tYWUnLCAnPG91dGZpbGUubWFlPic=

>  <r_epik_Ionization_Penalty>  (270) 
0.254909

>  <r_epik_Ionization_Penalty_Charging>  (270) 
0.254648

>  <r_epik_Ionization_Penalty_Neutral>  (270) 
0.00026189

>  <r_epik_State_Penalty>  (270) 
0.243272

>  <r_epik_Charging_Adjusted_Penalty>  (270) 
0.49792

>  <i_epik_Tot_Q>  (270) 
2

>  <i_epik_Tot_abs_Q>  (270) 
2

>  <s_lp_Force_Field>  (270) 
OPLS3e

>  <r_lp_Energy>  (270) 
215.192

>  <b_lp_Chiralities_Consistent>  (270) 
1

>  <s_lp_Variant>  (270) 
77:0-1

>  <s_i_glide_gridfile>  (270) 
pfpi4k_grid

>  <i_i_glide_lignum>  (270) 
2

>  <i_i_glide_rotatable_bonds>  (270) 
1

>  <r_i_docking_score>  (270) 
-4.04997

>  <r_i_glide_ligand_efficiency>  (270) 
-0.192856

>  <r_i_glide_ligand_efficiency_sa>  (270) 
-0.532075

>  <r_i_glide_ligand_efficiency_ln>  (270) 
-1.00135

>  <r_i_glide_gscore>  (270) 
-4.04997

>  <r_i_glide_lipo>  (270) 
-0.617308

>  <r_i_glide_hbond>  (270) 
-0.14891

>  <r_i_glide_metal>  (270) 
-0

>  <r_i_glide_rewards>  (270) 
-1.44385

>  <r_i_glide_evdw>  (270) 
-10.6604

>  <r_i_glide_ecoul>  (270) 
-8.05927

>  <r_i_glide_erotb>  (270) 
0

>  <r_i_glide_esite>  (270) 
-0.0979903

>  <r_i_glide_emodel>  (270) 
-26.8329

>  <r_i_glide_energy>  (270) 
-18.7197

>  <r_i_glide_einternal>  (270) 
0.109321

>  <r_i_glide_intrahb_reward>  (270) 
-0

>  <i_i_glide_confnum>  (270) 
1

>  <i_i_glide_posenum>  (270) 
36

>  <r_i_glide_eff_state_penalty>  (270) 
0

>  <ligand_id>  (270) 
77

>  <original_smiles>  (270) 
CC1C2CC3=C4CCC(O)(O4)C4N5CCC2N1CCC34C5

>  <smiles>  (270) 
[H]OC12OC(=C3C([H])([H])C4([H])C([H])(C([H])([H])[H])[N+]5([H])C([H])([H])C([H])([H])C36C([H])([H])[N+]([H])(C([H])([H])C([H])([H])C45[H])C16[H])C([H])([H])C2([H])[H]

$$$$
77:0:1
     RDKit          3D

 47 52  0  0  1  0  0  0  0  0999 V2000
    3.6737   -0.1526    4.9269 C   0  0  0  0  0  0  0  0  0  0  0  0
    2.8477    1.1192    5.1562 C   0  0  2  0  0  0  0  0  0  0  0  0
    1.6942    1.4377    4.1907 C   0  0  1  0  0  0  0  0  0  0  0  0
    0.2845    1.5871    4.9086 C   0  0  0  0  0  0  0  0  0  0  0  0
   -0.3588    2.9578    5.2833 C   0  0  0  0  0  0  0  0  0  0  0  0
   -1.6747    3.2268    5.0939 C   0  0  0  0  0  0  0  0  0  0  0  0
   -2.5190    2.3918    4.1756 C   0  0  0  0  0  0  0  0  0  0  0  0
   -2.1359    3.0428    2.8371 C   0  0  0  0  0  0  0  0  0  0  0  0
   -1.3806    4.3310    3.2908 C   0  0  1  0  0  0  0  0  0  0  0  0
   -1.7142    5.4266    2.4804 O   0  0  0  0  0  0  0  0  0  0  0  0
   -1.8892    4.4589    4.5674 O   0  0  0  0  0  0  0  0  0  0  0  0
    0.1905    4.1580    3.5090 C   0  0  1  0  0  0  0  0  0  0  0  0
    0.9316    5.3748    3.3908 N   0  0  2  0  0  0  0  0  0  0  0  0
    2.3569    5.1340    3.0443 C   0  0  0  0  0  0  0  0  0  0  0  0
    2.7628    3.6827    2.5938 C   0  0  0  0  0  0  0  0  0  0  0  0
    2.7678    2.3849    3.5107 C   0  0  1  0  0  0  0  0  0  0  0  0
    3.5208    2.3691    4.7465 N   0  0  1  0  0  0  0  0  0  0  0  0
    3.3150    3.5433    5.6136 C   0  0  0  0  0  0  0  0  0  0  0  0
    1.8555    3.7911    6.0334 C   0  0  0  0  0  0  0  0  0  0  0  0
    0.6595    4.0700    5.0502 C   0  0  2  0  0  0  0  0  0  0  0  0
    0.5664    5.6116    4.8017 C   0  0  0  0  0  0  0  0  0  0  0  0
    3.0555   -1.0294    5.1306 H   0  0  0  0  0  0  0  0  0  0  0  0
    4.5292   -0.2133    5.6004 H   0  0  0  0  0  0  0  0  0  0  0  0
    4.0332   -0.2644    3.9011 H   0  0  0  0  0  0  0  0  0  0  0  0
    2.5283    1.1708    6.1951 H   0  0  0  0  0  0  0  0  0  0  0  0
    1.6039    0.6053    3.4903 H   0  0  0  0  0  0  0  0  0  0  0  0
   -0.4026    0.9974    4.3119 H   0  0  0  0  0  0  0  0  0  0  0  0
    0.3097    1.0280    5.8405 H   0  0  0  0  0  0  0  0  0  0  0  0
   -2.4218    1.3085    4.2212 H   0  0  0  0  0  0  0  0  0  0  0  0
   -3.5564    2.6260    4.3908 H   0  0  0  0  0  0  0  0  0  0  0  0
   -1.4992    2.4007    2.2321 H   0  0  0  0  0  0  0  0  0  0  0  0
   -3.0366    3.2785    2.2719 H   0  0  0  0  0  0  0  0  0  0  0  0
   -1.2718    5.2810    1.6449 H   0  0  0  0  0  0  0  0  0  0  0  0
    0.4764    3.3320    2.8710 H   0  0  0  0  0  0  0  0  0  0  0  0
    2.5108    5.7281    2.1437 H   0  0  0  0  0  0  0  0  0  0  0  0
    3.0455    5.5939    3.7487 H   0  0  0  0  0  0  0  0  0  0  0  0
    2.2050    3.4517    1.6811 H   0  0  0  0  0  0  0  0  0  0  0  0
    3.7670    3.8486    2.2159 H   0  0  0  0  0  0  0  0  0  0  0  0
    3.3274    1.6831    2.8843 H   0  0  0  0  0  0  0  0  0  0  0  0
    3.8821    3.3456    6.5223 H   0  0  0  0  0  0  0  0  0  0  0  0
    3.7990    4.4190    5.2008 H   0  0  0  0  0  0  0  0  0  0  0  0
    1.5751    3.0190    6.7503 H   0  0  0  0  0  0  0  0  0  0  0  0
    1.9260    4.6407    6.7095 H   0  0  0  0  0  0  0  0  0  0  0  0
    1.3409    6.2070    5.2864 H   0  0  0  0  0  0  0  0  0  0  0  0
   -0.3905    6.1075    4.9515 H   0  0  0  0  0  0  0  0  0  0  0  0
    4.5004    2.2104    4.5679 H   0  0  0  0  0  0  0  0  0  0  0  0
    0.5003    6.0474    2.7635 H   0  0  0  0  0  0  0  0  0  0  0  0
  1  2  1  0
  1 22  1  0
  1 23  1  0
  1 24  1  0
  2 17  1  0
  2  3  1  0
  2 25  1  1
  3 16  1  0
  3  4  1  0
  3 26  1  6
  4  5  1  0
  4 27  1  0
  4 28  1  0
  5 20  1  0
  5  6  2  0
  6 11  1  0
  6  7  1  0
  7  8  1  0
  7 29  1  0
  7 30  1  0
  8  9  1  0
  8 31  1  0
  8 32  1  0
  9 10  1  6
  9 11  1  0
  9 12  1  0
 10 33  1  0
 12 20  1  0
 12 13  1  0
 12 34  1  6
 13 21  1  0
 13 14  1  0
 13 47  1  6
 14 15  1  0
 14 35  1  0
 14 36  1  0
 15 16  1  0
 15 37  1  0
 15 38  1  0
 16 17  1  0
 16 39  1  6
 17 18  1  0
 17 46  1  6
 18 19  1  0
 18 40  1  0
 18 41  1  0
 19 20  1  0
 19 42  1  0
 19 43  1  0
 20 21  1  1
 21 44  1  0
 21 45  1  0
M  CHG  2  13   1  17   1
M  END
>  <i_m_ct_stereo_status>  (271) 
1

>  <s_m_source_file>  (271) 
/var/tmp/pbs.5083858.sched01/tmpmxhk20_f/110jarzbz3x.sdf

>  <i_m_source_file_index>  (271) 
2

>  <i_lp_mmshare_version>  (271) 
48012

>  <i_f3d_flags>  (271) 
0

>  <s_epik_input>  (271) 
W0NIMl0xW0NIMl1OMltDQEhdKFtDSDNdKVtDQEBIXShbQ0gyXTMpW0NASF0yW0NIMl1bQ0gyXU4oW0NIMl00KVtDQEBIXTVbQ0BAXShPNikoW09IXSlbQ0gyXVtDSDJdQzY9QzNDMTQ1

>  <s_epik_cmdline>  (271) 
J2VwaWtfcHl0aG9uJywgJy1waHQnLCAnMi4wJywgJy1waCcsICc3LjAnLCAnLXRuJywgJzgnLCAnLW1hJywgJzIwMCcsICctaW1hZScsICc8aW5maWxlLm1hZT4nLCAnLW9tYWUnLCAnPG91dGZpbGUubWFlPic=

>  <r_epik_Ionization_Penalty>  (271) 
0.254909

>  <r_epik_Ionization_Penalty_Charging>  (271) 
0.254648

>  <r_epik_Ionization_Penalty_Neutral>  (271) 
0.00026189

>  <r_epik_State_Penalty>  (271) 
0.243272

>  <r_epik_Charging_Adjusted_Penalty>  (271) 
0.49792

>  <i_epik_Tot_Q>  (271) 
2

>  <i_epik_Tot_abs_Q>  (271) 
2

>  <s_lp_Force_Field>  (271) 
OPLS3e

>  <r_lp_Energy>  (271) 
215.192

>  <b_lp_Chiralities_Consistent>  (271) 
1

>  <s_lp_Variant>  (271) 
77:0-1

>  <s_i_glide_gridfile>  (271) 
pfpi4k_grid

>  <i_i_glide_lignum>  (271) 
2

>  <i_i_glide_rotatable_bonds>  (271) 
1

>  <r_i_docking_score>  (271) 
-3.9041

>  <r_i_glide_ligand_efficiency>  (271) 
-0.185909

>  <r_i_glide_ligand_efficiency_sa>  (271) 
-0.51291

>  <r_i_glide_ligand_efficiency_ln>  (271) 
-0.96528

>  <r_i_glide_gscore>  (271) 
-3.9041

>  <r_i_glide_lipo>  (271) 
-0.000463674

>  <r_i_glide_hbond>  (271) 
-0.0867083

>  <r_i_glide_metal>  (271) 
-0

>  <r_i_glide_rewards>  (271) 
-1.42909

>  <r_i_glide_evdw>  (271) 
-9.66197

>  <r_i_glide_ecoul>  (271) 
-11.3808

>  <r_i_glide_erotb>  (271) 
0

>  <r_i_glide_esite>  (271) 
-0.197624

>  <r_i_glide_emodel>  (271) 
-28.2024

>  <r_i_glide_energy>  (271) 
-21.0427

>  <r_i_glide_einternal>  (271) 
1.7766

>  <r_i_glide_intrahb_reward>  (271) 
-0

>  <i_i_glide_confnum>  (271) 
2

>  <i_i_glide_posenum>  (271) 
25

>  <r_i_glide_eff_state_penalty>  (271) 
0

>  <ligand_id>  (271) 
77

>  <original_smiles>  (271) 
CC1C2CC3=C4CCC(O)(O4)C4N5CCC2N1CCC34C5

>  <smiles>  (271) 
[H]OC12OC(=C3C([H])([H])C4([H])C([H])(C([H])([H])[H])[N+]5([H])C([H])([H])C([H])([H])C36C([H])([H])[N+]([H])(C([H])([H])C([H])([H])C45[H])C16[H])C([H])([H])C2([H])[H]

$$$$
77:0:2
     RDKit          3D

 47 52  0  0  1  0  0  0  0  0999 V2000
    2.6675   -2.9401   -3.5698 C   0  0  0  0  0  0  0  0  0  0  0  0
    3.6561   -2.6627   -2.4326 C   0  0  2  0  0  0  0  0  0  0  0  0
    3.7771   -3.6423   -1.2597 C   0  0  1  0  0  0  0  0  0  0  0  0
    5.2081   -4.2618   -1.0446 C   0  0  0  0  0  0  0  0  0  0  0  0
    6.1765   -3.7354    0.0371 C   0  0  0  0  0  0  0  0  0  0  0  0
    6.9409   -4.5772    0.7797 C   0  0  0  0  0  0  0  0  0  0  0  0
    6.6013   -6.0364    0.9169 C   0  0  0  0  0  0  0  0  0  0  0  0
    5.5099   -5.9358    2.0120 C   0  0  0  0  0  0  0  0  0  0  0  0
    5.6327   -4.4647    2.5178 C   0  0  1  0  0  0  0  0  0  0  0  0
    5.4393   -4.3954    3.9191 O   0  0  0  0  0  0  0  0  0  0  0  0
    6.9312   -4.2183    2.0701 O   0  0  0  0  0  0  0  0  0  0  0  0
    4.7647   -3.4054    1.7063 C   0  0  1  0  0  0  0  0  0  0  0  0
    4.4802   -2.2281    2.4556 N   0  0  2  0  0  0  0  0  0  0  0  0
    3.2695   -1.5184    1.9650 C   0  0  0  0  0  0  0  0  0  0  0  0
    2.3696   -2.2850    0.9468 C   0  0  0  0  0  0  0  0  0  0  0  0
    2.7935   -2.6686   -0.5355 C   0  0  1  0  0  0  0  0  0  0  0  0
    3.2003   -1.6459   -1.4656 N   0  0  1  0  0  0  0  0  0  0  0  0
    4.2372   -0.7389   -0.9556 C   0  0  0  0  0  0  0  0  0  0  0  0
    5.5191   -1.4141   -0.4853 C   0  0  0  0  0  0  0  0  0  0  0  0
    5.5946   -2.4833    0.6711 C   0  0  2  0  0  0  0  0  0  0  0  0
    5.7893   -1.7359    2.0208 C   0  0  0  0  0  0  0  0  0  0  0  0
    3.0120   -3.8018   -4.1407 H   0  0  0  0  0  0  0  0  0  0  0  0
    2.6015   -2.1093   -4.2723 H   0  0  0  0  0  0  0  0  0  0  0  0
    1.6591   -3.1842   -3.2334 H   0  0  0  0  0  0  0  0  0  0  0  0
    4.6364   -2.4231   -2.8291 H   0  0  0  0  0  0  0  0  0  0  0  0
    3.0958   -4.4526   -1.4167 H   0  0  0  0  0  0  0  0  0  0  0  0
    5.0496   -5.3335   -0.9512 H   0  0  0  0  0  0  0  0  0  0  0  0
    5.7514   -4.1847   -1.9830 H   0  0  0  0  0  0  0  0  0  0  0  0
    6.2935   -6.5903    0.0562 H   0  0  0  0  0  0  0  0  0  0  0  0
    7.4921   -6.5232    1.3290 H   0  0  0  0  0  0  0  0  0  0  0  0
    4.5221   -6.1419    1.6122 H   0  0  0  0  0  0  0  0  0  0  0  0
    5.7283   -6.6471    2.8129 H   0  0  0  0  0  0  0  0  0  0  0  0
    5.8056   -3.5921    4.2662 H   0  0  0  0  0  0  0  0  0  0  0  0
    3.9263   -3.9619    1.3230 H   0  0  0  0  0  0  0  0  0  0  0  0
    2.6533   -1.4191    2.8535 H   0  0  0  0  0  0  0  0  0  0  0  0
    3.4472   -0.4806    1.7223 H   0  0  0  0  0  0  0  0  0  0  0  0
    2.0021   -3.1817    1.4419 H   0  0  0  0  0  0  0  0  0  0  0  0
    1.4582   -1.6997    0.9282 H   0  0  0  0  0  0  0  0  0  0  0  0
    1.8504   -3.0185   -0.9597 H   0  0  0  0  0  0  0  0  0  0  0  0
    4.4892   -0.0756   -1.7748 H   0  0  0  0  0  0  0  0  0  0  0  0
    3.8779   -0.0850   -0.1827 H   0  0  0  0  0  0  0  0  0  0  0  0
    6.0659   -1.7655   -1.3643 H   0  0  0  0  0  0  0  0  0  0  0  0
    6.1420   -0.5717   -0.1862 H   0  0  0  0  0  0  0  0  0  0  0  0
    5.7987   -0.6526    1.9673 H   0  0  0  0  0  0  0  0  0  0  0  0
    6.5980   -2.0588    2.6719 H   0  0  0  0  0  0  0  0  0  0  0  0
    2.3714   -1.1544   -1.7577 H   0  0  0  0  0  0  0  0  0  0  0  0
    4.4401   -2.3622    3.4495 H   0  0  0  0  0  0  0  0  0  0  0  0
  1  2  1  0
  1 22  1  0
  1 23  1  0
  1 24  1  0
  2 17  1  0
  2  3  1  0
  2 25  1  6
  3 16  1  0
  3  4  1  0
  3 26  1  6
  4  5  1  0
  4 27  1  0
  4 28  1  0
  5 20  1  0
  5  6  2  0
  6 11  1  0
  6  7  1  0
  7  8  1  0
  7 29  1  0
  7 30  1  0
  8  9  1  0
  8 31  1  0
  8 32  1  0
  9 10  1  1
  9 11  1  0
  9 12  1  0
 10 33  1  0
 12 20  1  0
 12 13  1  0
 12 34  1  6
 13 21  1  0
 13 14  1  0
 13 47  1  1
 14 15  1  0
 14 35  1  0
 14 36  1  0
 15 16  1  0
 15 37  1  0
 15 38  1  0
 16 17  1  0
 16 39  1  6
 17 18  1  0
 17 46  1  6
 18 19  1  0
 18 40  1  0
 18 41  1  0
 19 20  1  0
 19 42  1  0
 19 43  1  0
 20 21  1  1
 21 44  1  0
 21 45  1  0
M  CHG  2  13   1  17   1
M  END
>  <i_m_ct_stereo_status>  (272) 
1

>  <s_m_source_file>  (272) 
/var/tmp/pbs.5083858.sched01/tmpmxhk20_f/110jarzbz3x.sdf

>  <i_m_source_file_index>  (272) 
2

>  <i_lp_mmshare_version>  (272) 
48012

>  <i_f3d_flags>  (272) 
0

>  <s_epik_input>  (272) 
W0NIMl0xW0NIMl1OMltDQEhdKFtDSDNdKVtDQEBIXShbQ0gyXTMpW0NASF0yW0NIMl1bQ0gyXU4oW0NIMl00KVtDQEBIXTVbQ0BAXShPNikoW09IXSlbQ0gyXVtDSDJdQzY9QzNDMTQ1

>  <s_epik_cmdline>  (272) 
J2VwaWtfcHl0aG9uJywgJy1waHQnLCAnMi4wJywgJy1waCcsICc3LjAnLCAnLXRuJywgJzgnLCAnLW1hJywgJzIwMCcsICctaW1hZScsICc8aW5maWxlLm1hZT4nLCAnLW9tYWUnLCAnPG91dGZpbGUubWFlPic=

>  <r_epik_Ionization_Penalty>  (272) 
0.254909

>  <r_epik_Ionization_Penalty_Charging>  (272) 
0.254648

>  <r_epik_Ionization_Penalty_Neutral>  (272) 
0.00026189

>  <r_epik_State_Penalty>  (272) 
0.243272

>  <r_epik_Charging_Adjusted_Penalty>  (272) 
0.49792

>  <i_epik_Tot_Q>  (272) 
2

>  <i_epik_Tot_abs_Q>  (272) 
2

>  <s_lp_Force_Field>  (272) 
OPLS3e

>  <r_lp_Energy>  (272) 
215.192

>  <b_lp_Chiralities_Consistent>  (272) 
1

>  <s_lp_Variant>  (272) 
77:0-1

>  <s_i_glide_gridfile>  (272) 
pfpi4k_grid

>  <i_i_glide_lignum>  (272) 
2

>  <i_i_glide_rotatable_bonds>  (272) 
1

>  <r_i_docking_score>  (272) 
-3.81654

>  <r_i_glide_ligand_efficiency>  (272) 
-0.18174

>  <r_i_glide_ligand_efficiency_sa>  (272) 
-0.501407

>  <r_i_glide_ligand_efficiency_ln>  (272) 
-0.943633

>  <r_i_glide_gscore>  (272) 
-3.81654

>  <r_i_glide_lipo>  (272) 
-0.730431

>  <r_i_glide_hbond>  (272) 
-0.114766

>  <r_i_glide_metal>  (272) 
-0

>  <r_i_glide_rewards>  (272) 
-1.45764

>  <r_i_glide_evdw>  (272) 
-7.36998

>  <r_i_glide_ecoul>  (272) 
-6.96802

>  <r_i_glide_erotb>  (272) 
0

>  <r_i_glide_esite>  (272) 
-0.1

>  <r_i_glide_emodel>  (272) 
-21.7647

>  <r_i_glide_energy>  (272) 
-14.338

>  <r_i_glide_einternal>  (272) 
0.002584

>  <r_i_glide_intrahb_reward>  (272) 
-0

>  <i_i_glide_confnum>  (272) 
1

>  <i_i_glide_posenum>  (272) 
2

>  <r_i_glide_eff_state_penalty>  (272) 
0

>  <ligand_id>  (272) 
77

>  <original_smiles>  (272) 
CC1C2CC3=C4CCC(O)(O4)C4N5CCC2N1CCC34C5

>  <smiles>  (272) 
[H]OC12OC(=C3C([H])([H])C4([H])C([H])(C([H])([H])[H])[N+]5([H])C([H])([H])C([H])([H])C36C([H])([H])[N+]([H])(C([H])([H])C([H])([H])C45[H])C16[H])C([H])([H])C2([H])[H]

$$$$
77:1:0
     RDKit          3D

 46 51  0  0  1  0  0  0  0  0999 V2000
    2.9748   -1.1409    3.6974 C   0  0  0  0  0  0  0  0  0  0  0  0
    3.8656   -1.4205    2.4926 C   0  0  2  0  0  0  0  0  0  0  0  0
    3.2274   -1.8234    1.1557 C   0  0  1  0  0  0  0  0  0  0  0  0
    3.6026   -0.8618   -0.0484 C   0  0  0  0  0  0  0  0  0  0  0  0
    4.6799   -1.1712   -1.1239 C   0  0  0  0  0  0  0  0  0  0  0  0
    4.5178   -0.9267   -2.4394 C   0  0  0  0  0  0  0  0  0  0  0  0
    3.1316   -0.7836   -3.0372 C   0  0  0  0  0  0  0  0  0  0  0  0
    2.7608   -2.2736   -3.1978 C   0  0  0  0  0  0  0  0  0  0  0  0
    4.1127   -2.9817   -2.9587 C   0  0  1  0  0  0  0  0  0  0  0  0
    4.2972   -4.0669   -3.8463 O   0  0  0  0  0  0  0  0  0  0  0  0
    4.9913   -1.9391   -3.2106 O   0  0  0  0  0  0  0  0  0  0  0  0
    4.3792   -3.3285   -1.4239 C   0  0  1  0  0  0  0  0  0  0  0  0
    5.2883   -4.3816   -1.2364 N   0  0  0  0  0  0  0  0  0  0  0  0
    5.1331   -5.0168    0.0815 C   0  0  0  0  0  0  0  0  0  0  0  0
    3.8710   -4.6979    0.9681 C   0  0  0  0  0  0  0  0  0  0  0  0
    3.5604   -3.2962    1.6236 C   0  0  1  0  0  0  0  0  0  0  0  0
    4.5335   -2.7328    2.5236 N   0  0  1  0  0  0  0  0  0  0  0  0
    5.9088   -2.7507    2.0299 C   0  0  0  0  0  0  0  0  0  0  0  0
    6.1543   -2.0189    0.7095 C   0  0  0  0  0  0  0  0  0  0  0  0
    5.4657   -2.3895   -0.6652 C   0  0  2  0  0  0  0  0  0  0  0  0
    6.3848   -3.4057   -1.4044 C   0  0  0  0  0  0  0  0  0  0  0  0
    2.4157   -0.2244    3.5270 H   0  0  0  0  0  0  0  0  0  0  0  0
    3.5542   -0.9871    4.6076 H   0  0  0  0  0  0  0  0  0  0  0  0
    2.2388   -1.9211    3.8877 H   0  0  0  0  0  0  0  0  0  0  0  0
    4.5741   -0.6097    2.3527 H   0  0  0  0  0  0  0  0  0  0  0  0
    2.1520   -1.7616    1.2860 H   0  0  0  0  0  0  0  0  0  0  0  0
    2.6619   -0.7012   -0.5409 H   0  0  0  0  0  0  0  0  0  0  0  0
    3.8399    0.1215    0.3533 H   0  0  0  0  0  0  0  0  0  0  0  0
    2.3701   -0.2299   -2.4983 H   0  0  0  0  0  0  0  0  0  0  0  0
    3.2427   -0.3261   -4.0106 H   0  0  0  0  0  0  0  0  0  0  0  0
    2.0211   -2.5980   -2.4657 H   0  0  0  0  0  0  0  0  0  0  0  0
    2.3820   -2.4681   -4.2002 H   0  0  0  0  0  0  0  0  0  0  0  0
    3.8692   -4.8199   -3.4497 H   0  0  0  0  0  0  0  0  0  0  0  0
    3.4313   -3.4682   -0.9322 H   0  0  0  0  0  0  0  0  0  0  0  0
    4.9658   -6.0650   -0.1590 H   0  0  0  0  0  0  0  0  0  0  0  0
    6.0828   -5.0836    0.6246 H   0  0  0  0  0  0  0  0  0  0  0  0
    2.9903   -4.9880    0.3935 H   0  0  0  0  0  0  0  0  0  0  0  0
    3.8738   -5.4476    1.7644 H   0  0  0  0  0  0  0  0  0  0  0  0
    2.7292   -3.5191    2.2937 H   0  0  0  0  0  0  0  0  0  0  0  0
    6.4793   -2.1933    2.7472 H   0  0  0  0  0  0  0  0  0  0  0  0
    6.3418   -3.7431    2.0459 H   0  0  0  0  0  0  0  0  0  0  0  0
    6.0863   -0.9348    0.8715 H   0  0  0  0  0  0  0  0  0  0  0  0
    7.2349   -2.1051    0.5523 H   0  0  0  0  0  0  0  0  0  0  0  0
    7.2832   -3.7223   -0.8545 H   0  0  0  0  0  0  0  0  0  0  0  0
    6.6542   -3.2025   -2.4455 H   0  0  0  0  0  0  0  0  0  0  0  0
    4.4838   -3.1478    3.4373 H   0  0  0  0  0  0  0  0  0  0  0  0
  1  2  1  0
  1 22  1  0
  1 23  1  0
  1 24  1  0
  2 17  1  0
  2  3  1  0
  2 25  1  6
  3 16  1  0
  3  4  1  0
  3 26  1  1
  4  5  1  0
  4 27  1  0
  4 28  1  0
  5 20  1  0
  5  6  2  0
  6 11  1  0
  6  7  1  0
  7  8  1  0
  7 29  1  0
  7 30  1  0
  8  9  1  0
  8 31  1  0
  8 32  1  0
  9 10  1  6
  9 11  1  0
  9 12  1  0
 10 33  1  0
 12 20  1  0
 12 13  1  0
 12 34  1  1
 13 21  1  0
 13 14  1  0
 14 15  1  0
 14 35  1  0
 14 36  1  0
 15 16  1  0
 15 37  1  0
 15 38  1  0
 16 17  1  0
 16 39  1  1
 17 18  1  0
 17 46  1  1
 18 19  1  0
 18 40  1  0
 18 41  1  0
 19 20  1  0
 19 42  1  0
 19 43  1  0
 20 21  1  6
 21 44  1  0
 21 45  1  0
M  CHG  1  17   1
M  END
>  <i_m_ct_stereo_status>  (273) 
1

>  <s_m_source_file>  (273) 
/var/tmp/pbs.5083858.sched01/tmpmxhk20_f/110jarzbz3x.sdf

>  <i_m_source_file_index>  (273) 
3

>  <i_lp_mmshare_version>  (273) 
48012

>  <i_f3d_flags>  (273) 
0

>  <s_epik_input>  (273) 
W0NIMl0xW0NIMl1OMltDQEhdKFtDSDNdKVtDQEBIXShbQ0gyXTMpW0NASF0yW0NIMl1bQ0gyXU4oW0NIMl00KVtDQEBIXTVbQ0BAXShPNikoW09IXSlbQ0gyXVtDSDJdQzY9QzNDMTQ1

>  <s_epik_cmdline>  (273) 
J2VwaWtfcHl0aG9uJywgJy1waHQnLCAnMi4wJywgJy1waCcsICc3LjAnLCAnLXRuJywgJzgnLCAnLW1hJywgJzIwMCcsICctaW1hZScsICc8aW5maWxlLm1hZT4nLCAnLW9tYWUnLCAnPG91dGZpbGUubWFlPic=

>  <r_epik_Ionization_Penalty>  (273) 
0.633624

>  <r_epik_Ionization_Penalty_Charging>  (273) 
0.000737901

>  <r_epik_Ionization_Penalty_Neutral>  (273) 
0.632886

>  <r_epik_State_Penalty>  (273) 
0.652383

>  <r_epik_Charging_Adjusted_Penalty>  (273) 
0.653121

>  <i_epik_Tot_Q>  (273) 
1

>  <i_epik_Tot_abs_Q>  (273) 
1

>  <s_lp_Force_Field>  (273) 
OPLS3e

>  <r_lp_Energy>  (273) 
199.571

>  <b_lp_Chiralities_Consistent>  (273) 
1

>  <s_lp_Variant>  (273) 
77:0-2

>  <s_i_glide_gridfile>  (273) 
pfpi4k_grid

>  <i_i_glide_lignum>  (273) 
3

>  <i_i_glide_rotatable_bonds>  (273) 
1

>  <r_i_docking_score>  (273) 
-3.94462

>  <r_i_glide_ligand_efficiency>  (273) 
-0.187839

>  <r_i_glide_ligand_efficiency_sa>  (273) 
-0.518233

>  <r_i_glide_ligand_efficiency_ln>  (273) 
-0.975299

>  <r_i_glide_gscore>  (273) 
-3.94462

>  <r_i_glide_lipo>  (273) 
-0.430261

>  <r_i_glide_hbond>  (273) 
0

>  <r_i_glide_metal>  (273) 
-0

>  <r_i_glide_rewards>  (273) 
-1.49899

>  <r_i_glide_evdw>  (273) 
-16.0771

>  <r_i_glide_ecoul>  (273) 
-8.07674

>  <r_i_glide_erotb>  (273) 
0

>  <r_i_glide_esite>  (273) 
0

>  <r_i_glide_emodel>  (273) 
-29.018

>  <r_i_glide_energy>  (273) 
-24.1538

>  <r_i_glide_einternal>  (273) 
1.81361

>  <r_i_glide_intrahb_reward>  (273) 
-0

>  <i_i_glide_confnum>  (273) 
1

>  <i_i_glide_posenum>  (273) 
17

>  <r_i_glide_eff_state_penalty>  (273) 
0

>  <ligand_id>  (273) 
77

>  <original_smiles>  (273) 
CC1C2CC3=C4CCC(O)(O4)C4N5CCC2N1CCC34C5

>  <smiles>  (273) 
[H]OC12OC(=C3C([H])([H])C4([H])C([H])(C([H])([H])[H])[N+]5([H])C([H])([H])C([H])([H])C36C([H])([H])N(C([H])([H])C([H])([H])C45[H])C16[H])C([H])([H])C2([H])[H]

$$$$
77:1:1
     RDKit          3D

 46 51  0  0  1  0  0  0  0  0999 V2000
    1.9844   -1.4335    3.8583 C   0  0  0  0  0  0  0  0  0  0  0  0
    3.0936   -1.8032    2.8661 C   0  0  2  0  0  0  0  0  0  0  0  0
    2.7247   -2.0880    1.4017 C   0  0  1  0  0  0  0  0  0  0  0  0
    3.4726   -1.1429    0.3677 C   0  0  0  0  0  0  0  0  0  0  0  0
    4.7399   -1.5557   -0.4283 C   0  0  0  0  0  0  0  0  0  0  0  0
    4.8968   -1.2655   -1.7472 C   0  0  0  0  0  0  0  0  0  0  0  0
    3.7248   -0.9182   -2.6382 C   0  0  0  0  0  0  0  0  0  0  0  0
    3.2280   -2.3388   -2.9496 C   0  0  0  0  0  0  0  0  0  0  0  0
    4.4014   -3.2222   -2.4546 C   0  0  1  0  0  0  0  0  0  0  0  0
    4.6228   -4.2586   -3.3648 O   0  0  0  0  0  0  0  0  0  0  0  0
    5.4294   -2.2907   -2.4491 O   0  0  0  0  0  0  0  0  0  0  0  0
    4.2696   -3.6832   -0.9266 C   0  0  1  0  0  0  0  0  0  0  0  0
    4.9851   -4.8574   -0.5984 N   0  0  0  0  0  0  0  0  0  0  0  0
    4.4307   -5.4902    0.6156 C   0  0  0  0  0  0  0  0  0  0  0  0
    3.0450   -5.0133    1.2054 C   0  0  0  0  0  0  0  0  0  0  0  0
    2.7837   -3.5999    1.8669 C   0  0  1  0  0  0  0  0  0  0  0  0
    3.5907   -3.1883    2.9945 N   0  0  1  0  0  0  0  0  0  0  0  0
    5.0390   -3.3833    2.8229 C   0  0  0  0  0  0  0  0  0  0  0  0
    5.6483   -2.6556    1.6123 C   0  0  0  0  0  0  0  0  0  0  0  0
    5.2459   -2.8965    0.1048 C   0  0  2  0  0  0  0  0  0  0  0  0
    6.1844   -4.0071   -0.4568 C   0  0  0  0  0  0  0  0  0  0  0  0
    1.5914   -0.4454    3.6108 H   0  0  0  0  0  0  0  0  0  0  0  0
    2.3527   -1.3732    4.8827 H   0  0  0  0  0  0  0  0  0  0  0  0
    1.1310   -2.1151    3.8343 H   0  0  0  0  0  0  0  0  0  0  0  0
    3.9069   -1.0844    2.9387 H   0  0  0  0  0  0  0  0  0  0  0  0
    1.6576   -1.8822    1.3019 H   0  0  0  0  0  0  0  0  0  0  0  0
    2.7085   -0.7920   -0.3133 H   0  0  0  0  0  0  0  0  0  0  0  0
    3.7372   -0.2147    0.8716 H   0  0  0  0  0  0  0  0  0  0  0  0
    2.9359   -0.2524   -2.3029 H   0  0  0  0  0  0  0  0  0  0  0  0
    4.1239   -0.4662   -3.5431 H   0  0  0  0  0  0  0  0  0  0  0  0
    2.3077   -2.5895   -2.4217 H   0  0  0  0  0  0  0  0  0  0  0  0
    3.0618   -2.4698   -4.0196 H   0  0  0  0  0  0  0  0  0  0  0  0
    4.0273   -4.9696   -3.1217 H   0  0  0  0  0  0  0  0  0  0  0  0
    3.2184   -3.7044   -0.6750 H   0  0  0  0  0  0  0  0  0  0  0  0
    4.1930   -6.5024    0.2826 H   0  0  0  0  0  0  0  0  0  0  0  0
    5.1995   -5.6923    1.3535 H   0  0  0  0  0  0  0  0  0  0  0  0
    2.2893   -5.1744    0.4360 H   0  0  0  0  0  0  0  0  0  0  0  0
    2.7759   -5.7745    1.9408 H   0  0  0  0  0  0  0  0  0  0  0  0
    1.8001   -3.7393    2.3224 H   0  0  0  0  0  0  0  0  0  0  0  0
    5.5037   -2.9771    3.7193 H   0  0  0  0  0  0  0  0  0  0  0  0
    5.2968   -4.4313    2.8682 H   0  0  0  0  0  0  0  0  0  0  0  0
    5.6722   -1.5875    1.8315 H   0  0  0  0  0  0  0  0  0  0  0  0
    6.7095   -2.8733    1.7004 H   0  0  0  0  0  0  0  0  0  0  0  0
    6.8817   -4.4454    0.2555 H   0  0  0  0  0  0  0  0  0  0  0  0
    6.7083   -3.8037   -1.3918 H   0  0  0  0  0  0  0  0  0  0  0  0
    3.2680   -3.6140    3.8473 H   0  0  0  0  0  0  0  0  0  0  0  0
  1  2  1  0
  1 22  1  0
  1 23  1  0
  1 24  1  0
  2 17  1  0
  2  3  1  0
  2 25  1  6
  3 16  1  0
  3  4  1  0
  3 26  1  1
  4  5  1  0
  4 27  1  0
  4 28  1  0
  5 20  1  0
  5  6  2  0
  6 11  1  0
  6  7  1  0
  7  8  1  0
  7 29  1  0
  7 30  1  0
  8  9  1  0
  8 31  1  0
  8 32  1  0
  9 10  1  6
  9 11  1  0
  9 12  1  0
 10 33  1  0
 12 20  1  0
 12 13  1  0
 12 34  1  1
 13 21  1  0
 13 14  1  0
 14 15  1  0
 14 35  1  0
 14 36  1  0
 15 16  1  0
 15 37  1  0
 15 38  1  0
 16 17  1  0
 16 39  1  1
 17 18  1  0
 17 46  1  1
 18 19  1  0
 18 40  1  0
 18 41  1  0
 19 20  1  0
 19 42  1  0
 19 43  1  0
 20 21  1  6
 21 44  1  0
 21 45  1  0
M  CHG  1  17   1
M  END
>  <i_m_ct_stereo_status>  (274) 
1

>  <s_m_source_file>  (274) 
/var/tmp/pbs.5083858.sched01/tmpmxhk20_f/110jarzbz3x.sdf

>  <i_m_source_file_index>  (274) 
3

>  <i_lp_mmshare_version>  (274) 
48012

>  <i_f3d_flags>  (274) 
0

>  <s_epik_input>  (274) 
W0NIMl0xW0NIMl1OMltDQEhdKFtDSDNdKVtDQEBIXShbQ0gyXTMpW0NASF0yW0NIMl1bQ0gyXU4oW0NIMl00KVtDQEBIXTVbQ0BAXShPNikoW09IXSlbQ0gyXVtDSDJdQzY9QzNDMTQ1

>  <s_epik_cmdline>  (274) 
J2VwaWtfcHl0aG9uJywgJy1waHQnLCAnMi4wJywgJy1waCcsICc3LjAnLCAnLXRuJywgJzgnLCAnLW1hJywgJzIwMCcsICctaW1hZScsICc8aW5maWxlLm1hZT4nLCAnLW9tYWUnLCAnPG91dGZpbGUubWFlPic=

>  <r_epik_Ionization_Penalty>  (274) 
0.633624

>  <r_epik_Ionization_Penalty_Charging>  (274) 
0.000737901

>  <r_epik_Ionization_Penalty_Neutral>  (274) 
0.632886

>  <r_epik_State_Penalty>  (274) 
0.652383

>  <r_epik_Charging_Adjusted_Penalty>  (274) 
0.653121

>  <i_epik_Tot_Q>  (274) 
1

>  <i_epik_Tot_abs_Q>  (274) 
1

>  <s_lp_Force_Field>  (274) 
OPLS3e

>  <r_lp_Energy>  (274) 
199.571

>  <b_lp_Chiralities_Consistent>  (274) 
1

>  <s_lp_Variant>  (274) 
77:0-2

>  <s_i_glide_gridfile>  (274) 
pfpi4k_grid

>  <i_i_glide_lignum>  (274) 
3

>  <i_i_glide_rotatable_bonds>  (274) 
1

>  <r_i_docking_score>  (274) 
-3.80507

>  <r_i_glide_ligand_efficiency>  (274) 
-0.181194

>  <r_i_glide_ligand_efficiency_sa>  (274) 
-0.4999

>  <r_i_glide_ligand_efficiency_ln>  (274) 
-0.940797

>  <r_i_glide_gscore>  (274) 
-3.80507

>  <r_i_glide_lipo>  (274) 
-0.259716

>  <r_i_glide_hbond>  (274) 
0

>  <r_i_glide_metal>  (274) 
-0

>  <r_i_glide_rewards>  (274) 
-1.43596

>  <r_i_glide_evdw>  (274) 
-16.957

>  <r_i_glide_ecoul>  (274) 
-8.37815

>  <r_i_glide_erotb>  (274) 
0

>  <r_i_glide_esite>  (274) 
-0.00482577

>  <r_i_glide_emodel>  (274) 
-30.0544

>  <r_i_glide_energy>  (274) 
-25.3351

>  <r_i_glide_einternal>  (274) 
1.76887

>  <r_i_glide_intrahb_reward>  (274) 
-0

>  <i_i_glide_confnum>  (274) 
2

>  <i_i_glide_posenum>  (274) 
2

>  <r_i_glide_eff_state_penalty>  (274) 
0

>  <ligand_id>  (274) 
77

>  <original_smiles>  (274) 
CC1C2CC3=C4CCC(O)(O4)C4N5CCC2N1CCC34C5

>  <smiles>  (274) 
[H]OC12OC(=C3C([H])([H])C4([H])C([H])(C([H])([H])[H])[N+]5([H])C([H])([H])C([H])([H])C36C([H])([H])N(C([H])([H])C([H])([H])C45[H])C16[H])C([H])([H])C2([H])[H]

$$$$
77:1:2
     RDKit          3D

 46 51  0  0  1  0  0  0  0  0999 V2000
    1.5649   -2.5391    3.4878 C   0  0  0  0  0  0  0  0  0  0  0  0
    1.4805   -1.1376    4.1038 C   0  0  2  0  0  0  0  0  0  0  0  0
    0.5890   -0.0687    3.4601 C   0  0  1  0  0  0  0  0  0  0  0  0
   -0.5237    0.5280    4.4086 C   0  0  0  0  0  0  0  0  0  0  0  0
   -0.3826    1.8884    5.1699 C   0  0  0  0  0  0  0  0  0  0  0  0
   -1.3796    2.7740    5.2842 C   0  0  0  0  0  0  0  0  0  0  0  0
   -2.5536    2.7076    4.3454 C   0  0  0  0  0  0  0  0  0  0  0  0
   -1.9687    3.4718    3.1394 C   0  0  0  0  0  0  0  0  0  0  0  0
   -0.6827    4.0850    3.7432 C   0  0  1  0  0  0  0  0  0  0  0  0
   -0.4482    5.3817    3.2585 O   0  0  0  0  0  0  0  0  0  0  0  0
   -0.9983    4.0641    5.0933 O   0  0  0  0  0  0  0  0  0  0  0  0
    0.5900    3.1334    3.6042 C   0  0  1  0  0  0  0  0  0  0  0  0
    1.8154    3.8289    3.6567 N   0  0  0  0  0  0  0  0  0  0  0  0
    2.8851    3.0210    3.0492 C   0  0  0  0  0  0  0  0  0  0  0  0
    2.5402    1.7352    2.2029 C   0  0  0  0  0  0  0  0  0  0  0  0
    1.9249    0.4091    2.7815 C   0  0  1  0  0  0  0  0  0  0  0  0
    2.6523   -0.2914    3.8139 N   0  0  1  0  0  0  0  0  0  0  0  0
    3.1073    0.5629    4.9211 C   0  0  0  0  0  0  0  0  0  0  0  0
    2.0003    1.3318    5.6490 C   0  0  0  0  0  0  0  0  0  0  0  0
    1.0401    2.4013    4.9832 C   0  0  2  0  0  0  0  0  0  0  0  0
    1.7039    3.8036    5.1309 C   0  0  0  0  0  0  0  0  0  0  0  0
    0.6124   -3.0407    3.6295 H   0  0  0  0  0  0  0  0  0  0  0  0
    2.3183   -3.1586    3.9737 H   0  0  0  0  0  0  0  0  0  0  0  0
    1.7491   -2.5366    2.4155 H   0  0  0  0  0  0  0  0  0  0  0  0
    1.2903   -1.2009    5.1690 H   0  0  0  0  0  0  0  0  0  0  0  0
    0.0897   -0.5556    2.6342 H   0  0  0  0  0  0  0  0  0  0  0  0
   -1.4334    0.4929    3.8207 H   0  0  0  0  0  0  0  0  0  0  0  0
   -0.7394   -0.2045    5.1816 H   0  0  0  0  0  0  0  0  0  0  0  0
   -2.9537    1.7338    4.0847 H   0  0  0  0  0  0  0  0  0  0  0  0
   -3.3719    3.2830    4.7687 H   0  0  0  0  0  0  0  0  0  0  0  0
   -1.7306    2.8147    2.3017 H   0  0  0  0  0  0  0  0  0  0  0  0
   -2.6551    4.2517    2.7866 H   0  0  0  0  0  0  0  0  0  0  0  0
   -0.1737    5.2851    2.3518 H   0  0  0  0  0  0  0  0  0  0  0  0
    0.4541    2.5055    2.7303 H   0  0  0  0  0  0  0  0  0  0  0  0
    3.2852    3.6819    2.2904 H   0  0  0  0  0  0  0  0  0  0  0  0
    3.7354    2.9280    3.7096 H   0  0  0  0  0  0  0  0  0  0  0  0
    1.9011    2.0438    1.3764 H   0  0  0  0  0  0  0  0  0  0  0  0
    3.4554    1.4516    1.6854 H   0  0  0  0  0  0  0  0  0  0  0  0
    2.0147   -0.2919    1.9427 H   0  0  0  0  0  0  0  0  0  0  0  0
    3.5747   -0.0915    5.6476 H   0  0  0  0  0  0  0  0  0  0  0  0
    3.9300    1.1936    4.6202 H   0  0  0  0  0  0  0  0  0  0  0  0
    1.4185    0.6333    6.2489 H   0  0  0  0  0  0  0  0  0  0  0  0
    2.5392    1.8390    6.4411 H   0  0  0  0  0  0  0  0  0  0  0  0
    2.6947    3.8105    5.5855 H   0  0  0  0  0  0  0  0  0  0  0  0
    1.0992    4.6108    5.5517 H   0  0  0  0  0  0  0  0  0  0  0  0
    3.4126   -0.8271    3.4335 H   0  0  0  0  0  0  0  0  0  0  0  0
  1  2  1  0
  1 22  1  0
  1 23  1  0
  1 24  1  0
  2 17  1  0
  2  3  1  0
  2 25  1  1
  3 16  1  0
  3  4  1  0
  3 26  1  6
  4  5  1  0
  4 27  1  0
  4 28  1  0
  5 20  1  0
  5  6  2  0
  6 11  1  0
  6  7  1  0
  7  8  1  0
  7 29  1  0
  7 30  1  0
  8  9  1  0
  8 31  1  0
  8 32  1  0
  9 10  1  6
  9 11  1  0
  9 12  1  0
 10 33  1  0
 12 20  1  0
 12 13  1  0
 12 34  1  6
 13 21  1  0
 13 14  1  0
 14 15  1  0
 14 35  1  0
 14 36  1  0
 15 16  1  0
 15 37  1  0
 15 38  1  0
 16 17  1  0
 16 39  1  6
 17 18  1  0
 17 46  1  6
 18 19  1  0
 18 40  1  0
 18 41  1  0
 19 20  1  0
 19 42  1  0
 19 43  1  0
 20 21  1  1
 21 44  1  0
 21 45  1  0
M  CHG  1  17   1
M  END
>  <i_m_ct_stereo_status>  (275) 
1

>  <s_m_source_file>  (275) 
/var/tmp/pbs.5083858.sched01/tmpmxhk20_f/110jarzbz3x.sdf

>  <i_m_source_file_index>  (275) 
3

>  <i_lp_mmshare_version>  (275) 
48012

>  <i_f3d_flags>  (275) 
0

>  <s_epik_input>  (275) 
W0NIMl0xW0NIMl1OMltDQEhdKFtDSDNdKVtDQEBIXShbQ0gyXTMpW0NASF0yW0NIMl1bQ0gyXU4oW0NIMl00KVtDQEBIXTVbQ0BAXShPNikoW09IXSlbQ0gyXVtDSDJdQzY9QzNDMTQ1

>  <s_epik_cmdline>  (275) 
J2VwaWtfcHl0aG9uJywgJy1waHQnLCAnMi4wJywgJy1waCcsICc3LjAnLCAnLXRuJywgJzgnLCAnLW1hJywgJzIwMCcsICctaW1hZScsICc8aW5maWxlLm1hZT4nLCAnLW9tYWUnLCAnPG91dGZpbGUubWFlPic=

>  <r_epik_Ionization_Penalty>  (275) 
0.633624

>  <r_epik_Ionization_Penalty_Charging>  (275) 
0.000737901

>  <r_epik_Ionization_Penalty_Neutral>  (275) 
0.632886

>  <r_epik_State_Penalty>  (275) 
0.652383

>  <r_epik_Charging_Adjusted_Penalty>  (275) 
0.653121

>  <i_epik_Tot_Q>  (275) 
1

>  <i_epik_Tot_abs_Q>  (275) 
1

>  <s_lp_Force_Field>  (275) 
OPLS3e

>  <r_lp_Energy>  (275) 
199.571

>  <b_lp_Chiralities_Consistent>  (275) 
1

>  <s_lp_Variant>  (275) 
77:0-2

>  <s_i_glide_gridfile>  (275) 
pfpi4k_grid

>  <i_i_glide_lignum>  (275) 
3

>  <i_i_glide_rotatable_bonds>  (275) 
1

>  <r_i_docking_score>  (275) 
-3.55482

>  <r_i_glide_ligand_efficiency>  (275) 
-0.169277

>  <r_i_glide_ligand_efficiency_sa>  (275) 
-0.467023

>  <r_i_glide_ligand_efficiency_ln>  (275) 
-0.878922

>  <r_i_glide_gscore>  (275) 
-3.55482

>  <r_i_glide_lipo>  (275) 
-0.0374872

>  <r_i_glide_hbond>  (275) 
0

>  <r_i_glide_metal>  (275) 
-0

>  <r_i_glide_rewards>  (275) 
-1.43596

>  <r_i_glide_evdw>  (275) 
-15.0006

>  <r_i_glide_ecoul>  (275) 
-8.20607

>  <r_i_glide_erotb>  (275) 
0

>  <r_i_glide_esite>  (275) 
-0.100429

>  <r_i_glide_emodel>  (275) 
-27.4724

>  <r_i_glide_energy>  (275) 
-23.2067

>  <r_i_glide_einternal>  (275) 
1.6908

>  <r_i_glide_intrahb_reward>  (275) 
-0

>  <i_i_glide_confnum>  (275) 
2

>  <i_i_glide_posenum>  (275) 
19

>  <r_i_glide_eff_state_penalty>  (275) 
0

>  <ligand_id>  (275) 
77

>  <original_smiles>  (275) 
CC1C2CC3=C4CCC(O)(O4)C4N5CCC2N1CCC34C5

>  <smiles>  (275) 
[H]OC12OC(=C3C([H])([H])C4([H])C([H])(C([H])([H])[H])[N+]5([H])C([H])([H])C([H])([H])C36C([H])([H])N(C([H])([H])C([H])([H])C45[H])C16[H])C([H])([H])C2([H])[H]

$$$$
77:2:0
     RDKit          3D

 46 51  0  0  1  0  0  0  0  0999 V2000
    2.8988   -5.2580    3.1821 C   0  0  0  0  0  0  0  0  0  0  0  0
    3.1567   -4.1741    2.1394 C   0  0  2  0  0  0  0  0  0  0  0  0
    4.1760   -4.4578    1.0407 C   0  0  1  0  0  0  0  0  0  0  0  0
    3.5706   -4.4790   -0.4329 C   0  0  0  0  0  0  0  0  0  0  0  0
    3.1285   -3.1396   -1.0735 C   0  0  0  0  0  0  0  0  0  0  0  0
    2.7065   -2.8825   -2.3343 C   0  0  0  0  0  0  0  0  0  0  0  0
    3.5261   -3.4050   -3.4966 C   0  0  0  0  0  0  0  0  0  0  0  0
    4.3981   -2.1766   -3.8455 C   0  0  0  0  0  0  0  0  0  0  0  0
    3.9289   -1.0743   -2.8654 C   0  0  1  0  0  0  0  0  0  0  0  0
    3.8799    0.1755   -3.5231 O   0  0  0  0  0  0  0  0  0  0  0  0
    2.6495   -1.5470   -2.6481 O   0  0  0  0  0  0  0  0  0  0  0  0
    4.4736   -0.9388   -1.3847 C   0  0  2  0  0  0  0  0  0  0  0  0
    5.8391   -1.3509   -0.8787 N   0  0  0  0  0  0  0  0  0  0  0  0
    6.1618   -1.1245    0.5728 C   0  0  0  0  0  0  0  0  0  0  0  0
    6.2803   -2.3774    1.5812 C   0  0  0  0  0  0  0  0  0  0  0  0
    5.1558   -3.5030    1.8804 C   0  0  1  0  0  0  0  0  0  0  0  0
    3.9960   -3.0665    2.6087 N   0  0  1  0  0  0  0  0  0  0  0  0
    3.5705   -1.7115    2.2732 C   0  0  0  0  0  0  0  0  0  0  0  0
    3.2174   -1.4651    0.7939 C   0  0  0  0  0  0  0  0  0  0  0  0
    3.9648   -2.0628   -0.4745 C   0  0  1  0  0  0  0  0  0  0  0  0
    5.3880   -2.6538   -0.9115 C   0  0  0  0  0  0  0  0  0  0  0  0
    2.4089   -6.1092    2.7138 H   0  0  0  0  0  0  0  0  0  0  0  0
    2.2378   -4.9135    3.9780 H   0  0  0  0  0  0  0  0  0  0  0  0
    3.8124   -5.6432    3.6392 H   0  0  0  0  0  0  0  0  0  0  0  0
    2.2293   -3.8117    1.6944 H   0  0  0  0  0  0  0  0  0  0  0  0
    4.5891   -5.4471    1.2201 H   0  0  0  0  0  0  0  0  0  0  0  0
    4.2698   -4.9957   -1.0965 H   0  0  0  0  0  0  0  0  0  0  0  0
    2.6897   -5.1180   -0.4272 H   0  0  0  0  0  0  0  0  0  0  0  0
    4.1401   -4.2792   -3.2852 H   0  0  0  0  0  0  0  0  0  0  0  0
    2.8402   -3.6342   -4.3058 H   0  0  0  0  0  0  0  0  0  0  0  0
    5.4606   -2.3621   -3.7783 H   0  0  0  0  0  0  0  0  0  0  0  0
    4.1706   -1.8510   -4.8566 H   0  0  0  0  0  0  0  0  0  0  0  0
    3.2465    0.7271   -3.0864 H   0  0  0  0  0  0  0  0  0  0  0  0
    4.2422    0.0433   -0.9779 H   0  0  0  0  0  0  0  0  0  0  0  0
    7.1555   -0.6829    0.5945 H   0  0  0  0  0  0  0  0  0  0  0  0
    5.5423   -0.3251    0.9882 H   0  0  0  0  0  0  0  0  0  0  0  0
    7.1807   -2.9172    1.2785 H   0  0  0  0  0  0  0  0  0  0  0  0
    6.5857   -1.9358    2.5297 H   0  0  0  0  0  0  0  0  0  0  0  0
    5.6223   -4.1988    2.5769 H   0  0  0  0  0  0  0  0  0  0  0  0
    2.6811   -1.4859    2.8523 H   0  0  0  0  0  0  0  0  0  0  0  0
    4.3055   -0.9892    2.6212 H   0  0  0  0  0  0  0  0  0  0  0  0
    2.1688   -1.7314    0.7072 H   0  0  0  0  0  0  0  0  0  0  0  0
    3.1798   -0.3762    0.7160 H   0  0  0  0  0  0  0  0  0  0  0  0
    5.4573   -3.0608   -1.9063 H   0  0  0  0  0  0  0  0  0  0  0  0
    5.9558   -3.4117   -0.3792 H   0  0  0  0  0  0  0  0  0  0  0  0
    4.1553   -3.1401    3.6076 H   0  0  0  0  0  0  0  0  0  0  0  0
  1  2  1  0
  1 22  1  0
  1 23  1  0
  1 24  1  0
  2 17  1  0
  2  3  1  0
  2 25  1  6
  3 16  1  0
  3  4  1  0
  3 26  1  1
  4  5  1  0
  4 27  1  0
  4 28  1  0
  5 20  1  0
  5  6  2  0
  6 11  1  0
  6  7  1  0
  7  8  1  0
  7 29  1  0
  7 30  1  0
  8  9  1  0
  8 31  1  0
  8 32  1  0
  9 10  1  6
  9 11  1  0
  9 12  1  0
 10 33  1  0
 12 20  1  0
 12 13  1  0
 12 34  1  1
 13 21  1  0
 13 14  1  0
 14 15  1  0
 14 35  1  0
 14 36  1  0
 15 16  1  0
 15 37  1  0
 15 38  1  0
 16 17  1  0
 16 39  1  1
 17 18  1  0
 17 46  1  1
 18 19  1  0
 18 40  1  0
 18 41  1  0
 19 20  1  0
 19 42  1  0
 19 43  1  0
 20 21  1  1
 21 44  1  0
 21 45  1  0
M  CHG  1  17   1
M  END
>  <i_m_ct_stereo_status>  (276) 
1

>  <s_m_source_file>  (276) 
/var/tmp/pbs.5083858.sched01/tmpmxhk20_f/110jarzbz3x.sdf

>  <i_m_source_file_index>  (276) 
4

>  <i_lp_mmshare_version>  (276) 
48012

>  <i_f3d_flags>  (276) 
2

>  <s_epik_input>  (276) 
W0NIMl0xW0NIMl1OMltDQEhdKFtDSDNdKVtDQEBIXShbQ0gyXTMpW0NASF0yW0NIMl1bQ0gyXU4oW0NIMl00KVtDQEBIXTVbQ0BAXShPNikoW09IXSlbQ0gyXVtDSDJdQzY9QzNDMTQ1

>  <s_epik_cmdline>  (276) 
J2VwaWtfcHl0aG9uJywgJy1waHQnLCAnMi4wJywgJy1waCcsICc3LjAnLCAnLXRuJywgJzgnLCAnLW1hJywgJzIwMCcsICctaW1hZScsICc8aW5maWxlLm1hZT4nLCAnLW9tYWUnLCAnPG91dGZpbGUubWFlPic=

>  <r_epik_Ionization_Penalty>  (276) 
0.633624

>  <r_epik_Ionization_Penalty_Charging>  (276) 
0.000737901

>  <r_epik_Ionization_Penalty_Neutral>  (276) 
0.632886

>  <r_epik_State_Penalty>  (276) 
0.652383

>  <r_epik_Charging_Adjusted_Penalty>  (276) 
0.653121

>  <i_epik_Tot_Q>  (276) 
1

>  <i_epik_Tot_abs_Q>  (276) 
1

>  <s_lp_Force_Field>  (276) 
OPLS3e

>  <r_lp_Energy>  (276) 
217.216

>  <b_lp_Chiralities_Consistent>  (276) 
0

>  <s_lp_Variant>  (276) 
77:0-3

>  <s_i_glide_gridfile>  (276) 
pfpi4k_grid

>  <i_i_glide_lignum>  (276) 
4

>  <i_i_glide_rotatable_bonds>  (276) 
1

>  <r_i_docking_score>  (276) 
-3.78834

>  <r_i_glide_ligand_efficiency>  (276) 
-0.180397

>  <r_i_glide_ligand_efficiency_sa>  (276) 
-0.497702

>  <r_i_glide_ligand_efficiency_ln>  (276) 
-0.936659

>  <r_i_glide_gscore>  (276) 
-3.78834

>  <r_i_glide_lipo>  (276) 
-0.489013

>  <r_i_glide_hbond>  (276) 
-0.0546403

>  <r_i_glide_metal>  (276) 
-0

>  <r_i_glide_rewards>  (276) 
-1.44463

>  <r_i_glide_evdw>  (276) 
-18.0592

>  <r_i_glide_ecoul>  (276) 
-5.98065

>  <r_i_glide_erotb>  (276) 
0

>  <r_i_glide_esite>  (276) 
0

>  <r_i_glide_emodel>  (276) 
-29.6326

>  <r_i_glide_energy>  (276) 
-24.0398

>  <r_i_glide_einternal>  (276) 
0.457231

>  <r_i_glide_intrahb_reward>  (276) 
-0

>  <i_i_glide_confnum>  (276) 
1

>  <i_i_glide_posenum>  (276) 
3

>  <r_i_glide_eff_state_penalty>  (276) 
0

>  <ligand_id>  (276) 
77

>  <original_smiles>  (276) 
CC1C2CC3=C4CCC(O)(O4)C4N5CCC2N1CCC34C5

>  <smiles>  (276) 
[H]OC12OC(=C3C([H])([H])C4([H])C([H])(C([H])([H])[H])[N+]5([H])C([H])([H])C([H])([H])C36C([H])([H])N(C([H])([H])C([H])([H])C45[H])C16[H])C([H])([H])C2([H])[H]

$$$$
77:2:1
     RDKit          3D

 46 51  0  0  1  0  0  0  0  0999 V2000
    4.5902   -6.5110    2.9085 C   0  0  0  0  0  0  0  0  0  0  0  0
    4.6853   -5.2667    2.0336 C   0  0  2  0  0  0  0  0  0  0  0  0
    5.2868   -5.3942    0.6445 C   0  0  1  0  0  0  0  0  0  0  0  0
    4.2754   -5.0560   -0.5355 C   0  0  0  0  0  0  0  0  0  0  0  0
    3.8656   -3.5841   -0.7756 C   0  0  0  0  0  0  0  0  0  0  0  0
    3.1405   -3.0354   -1.7755 C   0  0  0  0  0  0  0  0  0  0  0  0
    3.4948   -3.3780   -3.2152 C   0  0  0  0  0  0  0  0  0  0  0  0
    4.4103   -2.1964   -3.6157 C   0  0  0  0  0  0  0  0  0  0  0  0
    4.4227   -1.2911   -2.3595 C   0  0  1  0  0  0  0  0  0  0  0  0
    4.3966    0.0631   -2.7372 O   0  0  0  0  0  0  0  0  0  0  0  0
    3.2109   -1.6652   -1.8134 O   0  0  0  0  0  0  0  0  0  0  0  0
    5.3801   -1.5005   -1.1265 C   0  0  2  0  0  0  0  0  0  0  0  0
    6.7556   -2.1362   -1.1489 N   0  0  0  0  0  0  0  0  0  0  0  0
    7.5129   -2.2406    0.1463 C   0  0  0  0  0  0  0  0  0  0  0  0
    7.7497   -3.6807    0.8335 C   0  0  0  0  0  0  0  0  0  0  0  0
    6.5979   -4.7286    1.2788 C   0  0  1  0  0  0  0  0  0  0  0  0
    5.7685   -4.3491    2.3885 N   0  0  1  0  0  0  0  0  0  0  0  0
    5.4365   -2.9297    2.4346 C   0  0  0  0  0  0  0  0  0  0  0  0
    4.7059   -2.3506    1.2091 C   0  0  0  0  0  0  0  0  0  0  0  0
    4.9833   -2.7324   -0.3049 C   0  0  1  0  0  0  0  0  0  0  0  0
    6.1149   -3.3510   -1.2519 C   0  0  0  0  0  0  0  0  0  0  0  0
    3.8662   -7.1998    2.4815 H   0  0  0  0  0  0  0  0  0  0  0  0
    4.2437   -6.2826    3.9182 H   0  0  0  0  0  0  0  0  0  0  0  0
    5.5314   -7.0634    2.9825 H   0  0  0  0  0  0  0  0  0  0  0  0
    3.7326   -4.7450    1.9668 H   0  0  0  0  0  0  0  0  0  0  0  0
    5.5842   -6.4262    0.5185 H   0  0  0  0  0  0  0  0  0  0  0  0
    4.6768   -5.4773   -1.4597 H   0  0  0  0  0  0  0  0  0  0  0  0
    3.3587   -5.6078   -0.3365 H   0  0  0  0  0  0  0  0  0  0  0  0
    4.0155   -4.3182   -3.3835 H   0  0  0  0  0  0  0  0  0  0  0  0
    2.5841   -3.3750   -3.8017 H   0  0  0  0  0  0  0  0  0  0  0  0
    5.4098   -2.4808   -3.9217 H   0  0  0  0  0  0  0  0  0  0  0  0
    3.9451   -1.6665   -4.4446 H   0  0  0  0  0  0  0  0  0  0  0  0
    4.3404    0.5813   -1.9533 H   0  0  0  0  0  0  0  0  0  0  0  0
    5.4140   -0.6012   -0.5097 H   0  0  0  0  0  0  0  0  0  0  0  0
    8.5176   -1.8936   -0.0747 H   0  0  0  0  0  0  0  0  0  0  0  0
    7.1641   -1.4904    0.8623 H   0  0  0  0  0  0  0  0  0  0  0  0
    8.4048   -4.2179    0.1485 H   0  0  0  0  0  0  0  0  0  0  0  0
    8.4216   -3.5207    1.6813 H   0  0  0  0  0  0  0  0  0  0  0  0
    7.1280   -5.5922    1.6661 H   0  0  0  0  0  0  0  0  0  0  0  0
    4.8205   -2.7503    3.3038 H   0  0  0  0  0  0  0  0  0  0  0  0
    6.3169   -2.3366    2.6227 H   0  0  0  0  0  0  0  0  0  0  0  0
    3.6312   -2.4467    1.3988 H   0  0  0  0  0  0  0  0  0  0  0  0
    4.8414   -1.2754    1.3405 H   0  0  0  0  0  0  0  0  0  0  0  0
    5.8346   -3.5458   -2.2727 H   0  0  0  0  0  0  0  0  0  0  0  0
    6.6866   -4.2489   -1.0494 H   0  0  0  0  0  0  0  0  0  0  0  0
    6.1976   -4.6403    3.2595 H   0  0  0  0  0  0  0  0  0  0  0  0
  1  2  1  0
  1 22  1  0
  1 23  1  0
  1 24  1  0
  2 17  1  0
  2  3  1  0
  2 25  1  6
  3 16  1  0
  3  4  1  0
  3 26  1  6
  4  5  1  0
  4 27  1  0
  4 28  1  0
  5 20  1  0
  5  6  2  0
  6 11  1  0
  6  7  1  0
  7  8  1  0
  7 29  1  0
  7 30  1  0
  8  9  1  0
  8 31  1  0
  8 32  1  0
  9 10  1  6
  9 11  1  0
  9 12  1  0
 10 33  1  0
 12 20  1  0
 12 13  1  0
 12 34  1  1
 13 21  1  0
 13 14  1  0
 14 15  1  0
 14 35  1  0
 14 36  1  0
 15 16  1  0
 15 37  1  0
 15 38  1  0
 16 17  1  0
 16 39  1  1
 17 18  1  0
 17 46  1  1
 18 19  1  0
 18 40  1  0
 18 41  1  0
 19 20  1  0
 19 42  1  0
 19 43  1  0
 20 21  1  1
 21 44  1  0
 21 45  1  0
M  CHG  1  17   1
M  END
>  <i_m_ct_stereo_status>  (277) 
1

>  <s_m_source_file>  (277) 
/var/tmp/pbs.5083858.sched01/tmpmxhk20_f/110jarzbz3x.sdf

>  <i_m_source_file_index>  (277) 
4

>  <i_lp_mmshare_version>  (277) 
48012

>  <i_f3d_flags>  (277) 
2

>  <s_epik_input>  (277) 
W0NIMl0xW0NIMl1OMltDQEhdKFtDSDNdKVtDQEBIXShbQ0gyXTMpW0NASF0yW0NIMl1bQ0gyXU4oW0NIMl00KVtDQEBIXTVbQ0BAXShPNikoW09IXSlbQ0gyXVtDSDJdQzY9QzNDMTQ1

>  <s_epik_cmdline>  (277) 
J2VwaWtfcHl0aG9uJywgJy1waHQnLCAnMi4wJywgJy1waCcsICc3LjAnLCAnLXRuJywgJzgnLCAnLW1hJywgJzIwMCcsICctaW1hZScsICc8aW5maWxlLm1hZT4nLCAnLW9tYWUnLCAnPG91dGZpbGUubWFlPic=

>  <r_epik_Ionization_Penalty>  (277) 
0.633624

>  <r_epik_Ionization_Penalty_Charging>  (277) 
0.000737901

>  <r_epik_Ionization_Penalty_Neutral>  (277) 
0.632886

>  <r_epik_State_Penalty>  (277) 
0.652383

>  <r_epik_Charging_Adjusted_Penalty>  (277) 
0.653121

>  <i_epik_Tot_Q>  (277) 
1

>  <i_epik_Tot_abs_Q>  (277) 
1

>  <s_lp_Force_Field>  (277) 
OPLS3e

>  <r_lp_Energy>  (277) 
217.216

>  <b_lp_Chiralities_Consistent>  (277) 
0

>  <s_lp_Variant>  (277) 
77:0-3

>  <s_i_glide_gridfile>  (277) 
pfpi4k_grid

>  <i_i_glide_lignum>  (277) 
4

>  <i_i_glide_rotatable_bonds>  (277) 
1

>  <r_i_docking_score>  (277) 
-3.72754

>  <r_i_glide_ligand_efficiency>  (277) 
-0.177502

>  <r_i_glide_ligand_efficiency_sa>  (277) 
-0.489715

>  <r_i_glide_ligand_efficiency_ln>  (277) 
-0.921628

>  <r_i_glide_gscore>  (277) 
-3.72754

>  <r_i_glide_lipo>  (277) 
-0.797905

>  <r_i_glide_hbond>  (277) 
-0.16

>  <r_i_glide_metal>  (277) 
-0

>  <r_i_glide_rewards>  (277) 
-1.43596

>  <r_i_glide_evdw>  (277) 
-13.7291

>  <r_i_glide_ecoul>  (277) 
-4.04899

>  <r_i_glide_erotb>  (277) 
0

>  <r_i_glide_esite>  (277) 
-0.0398754

>  <r_i_glide_emodel>  (277) 
-23.5421

>  <r_i_glide_energy>  (277) 
-17.7781

>  <r_i_glide_einternal>  (277) 
0.00941164

>  <r_i_glide_intrahb_reward>  (277) 
-0

>  <i_i_glide_confnum>  (277) 
1

>  <i_i_glide_posenum>  (277) 
21

>  <r_i_glide_eff_state_penalty>  (277) 
0

>  <ligand_id>  (277) 
77

>  <original_smiles>  (277) 
CC1C2CC3=C4CCC(O)(O4)C4N5CCC2N1CCC34C5

>  <smiles>  (277) 
[H]OC12OC(=C3C([H])([H])C4([H])C([H])(C([H])([H])[H])[N+]5([H])C([H])([H])C([H])([H])C36C([H])([H])N(C([H])([H])C([H])([H])C45[H])C16[H])C([H])([H])C2([H])[H]

$$$$
77:2:2
     RDKit          3D

 46 51  0  0  1  0  0  0  0  0999 V2000
    1.9850   -7.8888    3.5431 C   0  0  0  0  0  0  0  0  0  0  0  0
    2.9501   -6.8069    3.0528 C   0  0  2  0  0  0  0  0  0  0  0  0
    3.4030   -6.8378    1.6008 C   0  0  1  0  0  0  0  0  0  0  0  0
    2.9602   -5.5691    0.7398 C   0  0  0  0  0  0  0  0  0  0  0  0
    3.6637   -4.2180    1.0146 C   0  0  0  0  0  0  0  0  0  0  0  0
    3.5678   -3.0290    0.3530 C   0  0  0  0  0  0  0  0  0  0  0  0
    3.6920   -3.0504   -1.1562 C   0  0  0  0  0  0  0  0  0  0  0  0
    5.1930   -2.7011   -1.3627 C   0  0  0  0  0  0  0  0  0  0  0  0
    5.7348   -2.4807    0.0846 C   0  0  1  0  0  0  0  0  0  0  0  0
    6.6589   -1.4255    0.1163 O   0  0  0  0  0  0  0  0  0  0  0  0
    4.5394   -2.1270    0.6973 O   0  0  0  0  0  0  0  0  0  0  0  0
    6.2052   -3.6608    1.0299 C   0  0  2  0  0  0  0  0  0  0  0  0
    6.8109   -4.9712    0.5968 N   0  0  0  0  0  0  0  0  0  0  0  0
    7.2074   -5.9594    1.6634 C   0  0  0  0  0  0  0  0  0  0  0  0
    6.3636   -7.3245    1.8687 C   0  0  0  0  0  0  0  0  0  0  0  0
    4.7750   -7.4394    2.1693 C   0  0  1  0  0  0  0  0  0  0  0  0
    4.3410   -7.0157    3.4764 N   0  0  1  0  0  0  0  0  0  0  0  0
    5.0579   -5.8384    3.9718 C   0  0  0  0  0  0  0  0  0  0  0  0
    4.9755   -4.5687    3.1074 C   0  0  0  0  0  0  0  0  0  0  0  0
    5.0303   -4.5159    1.5154 C   0  0  1  0  0  0  0  0  0  0  0  0
    5.5302   -5.3703    0.2533 C   0  0  0  0  0  0  0  0  0  0  0  0
    1.0163   -7.7532    3.0626 H   0  0  0  0  0  0  0  0  0  0  0  0
    1.8135   -7.8322    4.6167 H   0  0  0  0  0  0  0  0  0  0  0  0
    2.3057   -8.9014    3.2956 H   0  0  0  0  0  0  0  0  0  0  0  0
    2.6008   -5.8083    3.3045 H   0  0  0  0  0  0  0  0  0  0  0  0
    2.9408   -7.7070    1.1377 H   0  0  0  0  0  0  0  0  0  0  0  0
    3.0271   -5.8207   -0.3108 H   0  0  0  0  0  0  0  0  0  0  0  0
    1.8956   -5.4001    0.8959 H   0  0  0  0  0  0  0  0  0  0  0  0
    3.3822   -3.9800   -1.6430 H   0  0  0  0  0  0  0  0  0  0  0  0
    3.0623   -2.2532   -1.5530 H   0  0  0  0  0  0  0  0  0  0  0  0
    5.7763   -3.4265   -1.9223 H   0  0  0  0  0  0  0  0  0  0  0  0
    5.2491   -1.7589   -1.9082 H   0  0  0  0  0  0  0  0  0  0  0  0
    6.8042   -1.2001    1.0344 H   0  0  0  0  0  0  0  0  0  0  0  0
    6.7844   -3.2614    1.8591 H   0  0  0  0  0  0  0  0  0  0  0  0
    8.1993   -6.3084    1.3806 H   0  0  0  0  0  0  0  0  0  0  0  0
    7.3956   -5.4494    2.6069 H   0  0  0  0  0  0  0  0  0  0  0  0
    6.5485   -7.9154    0.9723 H   0  0  0  0  0  0  0  0  0  0  0  0
    6.9064   -7.9013    2.6250 H   0  0  0  0  0  0  0  0  0  0  0  0
    4.5677   -8.5116    2.1974 H   0  0  0  0  0  0  0  0  0  0  0  0
    4.6510   -5.5953    4.9471 H   0  0  0  0  0  0  0  0  0  0  0  0
    6.0901   -6.1030    4.1784 H   0  0  0  0  0  0  0  0  0  0  0  0
    4.0969   -4.0055    3.4318 H   0  0  0  0  0  0  0  0  0  0  0  0
    5.7735   -3.9474    3.5127 H   0  0  0  0  0  0  0  0  0  0  0  0
    5.2589   -4.9811   -0.7188 H   0  0  0  0  0  0  0  0  0  0  0  0
    5.3470   -6.4212    0.0835 H   0  0  0  0  0  0  0  0  0  0  0  0
    4.4060   -7.7722    4.1318 H   0  0  0  0  0  0  0  0  0  0  0  0
  1  2  1  0
  1 22  1  0
  1 23  1  0
  1 24  1  0
  2 17  1  0
  2  3  1  0
  2 25  1  1
  3 16  1  0
  3  4  1  0
  3 26  1  6
  4  5  1  0
  4 27  1  0
  4 28  1  0
  5 20  1  0
  5  6  2  0
  6 11  1  0
  6  7  1  0
  7  8  1  0
  7 29  1  0
  7 30  1  0
  8  9  1  0
  8 31  1  0
  8 32  1  0
  9 10  1  6
  9 11  1  0
  9 12  1  0
 10 33  1  0
 12 20  1  0
 12 13  1  0
 12 34  1  1
 13 21  1  0
 13 14  1  0
 14 15  1  0
 14 35  1  0
 14 36  1  0
 15 16  1  0
 15 37  1  0
 15 38  1  0
 16 17  1  0
 16 39  1  1
 17 18  1  0
 17 46  1  1
 18 19  1  0
 18 40  1  0
 18 41  1  0
 19 20  1  0
 19 42  1  0
 19 43  1  0
 20 21  1  6
 21 44  1  0
 21 45  1  0
M  CHG  1  17   1
M  END
>  <i_m_ct_stereo_status>  (278) 
1

>  <s_m_source_file>  (278) 
/var/tmp/pbs.5083858.sched01/tmpmxhk20_f/110jarzbz3x.sdf

>  <i_m_source_file_index>  (278) 
4

>  <i_lp_mmshare_version>  (278) 
48012

>  <i_f3d_flags>  (278) 
2

>  <s_epik_input>  (278) 
W0NIMl0xW0NIMl1OMltDQEhdKFtDSDNdKVtDQEBIXShbQ0gyXTMpW0NASF0yW0NIMl1bQ0gyXU4oW0NIMl00KVtDQEBIXTVbQ0BAXShPNikoW09IXSlbQ0gyXVtDSDJdQzY9QzNDMTQ1

>  <s_epik_cmdline>  (278) 
J2VwaWtfcHl0aG9uJywgJy1waHQnLCAnMi4wJywgJy1waCcsICc3LjAnLCAnLXRuJywgJzgnLCAnLW1hJywgJzIwMCcsICctaW1hZScsICc8aW5maWxlLm1hZT4nLCAnLW9tYWUnLCAnPG91dGZpbGUubWFlPic=

>  <r_epik_Ionization_Penalty>  (278) 
0.633624

>  <r_epik_Ionization_Penalty_Charging>  (278) 
0.000737901

>  <r_epik_Ionization_Penalty_Neutral>  (278) 
0.632886

>  <r_epik_State_Penalty>  (278) 
0.652383

>  <r_epik_Charging_Adjusted_Penalty>  (278) 
0.653121

>  <i_epik_Tot_Q>  (278) 
1

>  <i_epik_Tot_abs_Q>  (278) 
1

>  <s_lp_Force_Field>  (278) 
OPLS3e

>  <r_lp_Energy>  (278) 
217.216

>  <b_lp_Chiralities_Consistent>  (278) 
0

>  <s_lp_Variant>  (278) 
77:0-3

>  <s_i_glide_gridfile>  (278) 
pfpi4k_grid

>  <i_i_glide_lignum>  (278) 
4

>  <i_i_glide_rotatable_bonds>  (278) 
1

>  <r_i_docking_score>  (278) 
-3.12922

>  <r_i_glide_ligand_efficiency>  (278) 
-0.14901

>  <r_i_glide_ligand_efficiency_sa>  (278) 
-0.411108

>  <r_i_glide_ligand_efficiency_ln>  (278) 
-0.773693

>  <r_i_glide_gscore>  (278) 
-3.12922

>  <r_i_glide_lipo>  (278) 
-0.430584

>  <r_i_glide_hbond>  (278) 
0

>  <r_i_glide_metal>  (278) 
-0

>  <r_i_glide_rewards>  (278) 
-1.46231

>  <r_i_glide_evdw>  (278) 
-14.9859

>  <r_i_glide_ecoul>  (278) 
-3.24686

>  <r_i_glide_erotb>  (278) 
0

>  <r_i_glide_esite>  (278) 
0

>  <r_i_glide_emodel>  (278) 
-23.1172

>  <r_i_glide_energy>  (278) 
-18.2327

>  <r_i_glide_einternal>  (278) 
0.0139869

>  <r_i_glide_intrahb_reward>  (278) 
-0

>  <i_i_glide_confnum>  (278) 
2

>  <i_i_glide_posenum>  (278) 
35

>  <r_i_glide_eff_state_penalty>  (278) 
0

>  <ligand_id>  (278) 
77

>  <original_smiles>  (278) 
CC1C2CC3=C4CCC(O)(O4)C4N5CCC2N1CCC34C5

>  <smiles>  (278) 
[H]OC12OC(=C3C([H])([H])C4([H])C([H])(C([H])([H])[H])[N+]5([H])C([H])([H])C([H])([H])C36C([H])([H])N(C([H])([H])C([H])([H])C45[H])C16[H])C([H])([H])C2([H])[H]

$$$$
78:0:0
     RDKit          3D

 44 46  0  0  1  0  0  0  0  0999 V2000
    2.9266   -6.7453    2.0702 C   0  0  0  0  0  0  0  0  0  0  0  0
    1.5536   -7.4420    2.0296 C   0  0  2  0  0  0  0  0  0  0  0  0
    0.5745   -6.6561    1.1437 C   0  0  0  0  0  0  0  0  0  0  0  0
    0.9861   -6.2108    0.0530 O   0  0  0  0  0  0  0  0  0  0  0  0
   -0.5816   -6.4287    1.5504 O   0  0  0  0  0  0  0  0  0  0  0  0
    1.0232   -7.7156    3.4592 C   0  0  2  0  0  0  0  0  0  0  0  0
   -0.0416   -8.8218    3.5469 C   0  0  0  0  0  0  0  0  0  0  0  0
   -1.0218   -8.3419    4.5967 C   0  0  0  0  0  0  0  0  0  0  0  0
   -0.4159   -7.0444    5.1142 C   0  0  1  0  0  0  0  0  0  0  0  0
    0.4625   -7.2328    6.3691 C   0  0  0  0  0  0  0  0  0  0  0  0
    1.1685   -5.9441    6.8422 C   0  0  2  0  0  0  0  0  0  0  0  0
    1.6839   -6.1024    8.2733 C   0  0  0  0  0  0  0  0  0  0  0  0
    0.3553   -4.7357    6.6825 N   0  0  0  0  0  0  0  0  0  0  0  0
    0.6454   -3.6094    5.9342 C   0  0  0  0  0  0  0  0  0  0  0  0
   -0.4744   -2.8415    6.0928 C   0  0  0  0  0  0  0  0  0  0  0  0
   -0.7494   -1.5486    5.5575 C   0  0  0  0  0  0  0  0  0  0  0  0
   -0.9522   -0.4397    5.1107 C   0  0  0  0  0  0  0  0  0  0  0  0
   -1.1836    0.8712    4.6123 C   0  0  0  0  0  0  0  0  0  0  0  0
   -1.7592    1.8694    5.2890 N   0  0  0  0  0  0  0  0  0  0  0  0
   -1.8452    3.0552    4.5358 C   0  0  0  0  0  0  0  0  0  0  0  0
   -1.3150    2.9338    3.2740 C   0  0  0  0  0  0  0  0  0  0  0  0
   -0.6964    1.3290    2.9815 S   0  0  0  0  0  0  0  0  0  0  0  0
   -1.3804   -3.5175    6.9097 N   0  0  0  0  0  0  0  0  0  0  0  0
   -0.8547   -4.6356    7.2916 N   0  0  0  0  0  0  0  0  0  0  0  0
    0.4387   -6.5767    4.0898 O   0  0  0  0  0  0  0  0  0  0  0  0
    3.3283   -6.6004    1.0668 H   0  0  0  0  0  0  0  0  0  0  0  0
    3.6605   -7.3383    2.6195 H   0  0  0  0  0  0  0  0  0  0  0  0
    2.8596   -5.7716    2.5567 H   0  0  0  0  0  0  0  0  0  0  0  0
    1.7100   -8.4119    1.5628 H   0  0  0  0  0  0  0  0  0  0  0  0
    1.8722   -8.0025    4.0775 H   0  0  0  0  0  0  0  0  0  0  0  0
   -0.5677   -8.9480    2.6044 H   0  0  0  0  0  0  0  0  0  0  0  0
    0.4060   -9.7832    3.7983 H   0  0  0  0  0  0  0  0  0  0  0  0
   -2.0068   -8.1695    4.1529 H   0  0  0  0  0  0  0  0  0  0  0  0
   -1.1459   -9.0553    5.4049 H   0  0  0  0  0  0  0  0  0  0  0  0
   -1.2383   -6.3467    5.2718 H   0  0  0  0  0  0  0  0  0  0  0  0
   -0.1471   -7.6429    7.1675 H   0  0  0  0  0  0  0  0  0  0  0  0
    1.2249   -7.9938    6.1964 H   0  0  0  0  0  0  0  0  0  0  0  0
    2.0335   -5.7972    6.1935 H   0  0  0  0  0  0  0  0  0  0  0  0
    2.3669   -6.9462    8.3512 H   0  0  0  0  0  0  0  0  0  0  0  0
    0.8585   -6.2800    8.9594 H   0  0  0  0  0  0  0  0  0  0  0  0
    2.2148   -5.2101    8.6008 H   0  0  0  0  0  0  0  0  0  0  0  0
    1.5532   -3.4611    5.3759 H   0  0  0  0  0  0  0  0  0  0  0  0
   -2.2886    3.9434    4.9764 H   0  0  0  0  0  0  0  0  0  0  0  0
   -1.2344    3.6658    2.4955 H   0  0  0  0  0  0  0  0  0  0  0  0
  1  2  1  0
  1 26  1  0
  1 27  1  0
  1 28  1  0
  2  3  1  0
  2  6  1  0
  2 29  1  6
  3  4  2  0
  3  5  1  0
  6 25  1  0
  6  7  1  0
  6 30  1  1
  7  8  1  0
  7 31  1  0
  7 32  1  0
  8  9  1  0
  8 33  1  0
  8 34  1  0
  9 10  1  0
  9 25  1  0
  9 35  1  1
 10 11  1  0
 10 36  1  0
 10 37  1  0
 11 12  1  0
 11 13  1  0
 11 38  1  6
 12 39  1  0
 12 40  1  0
 12 41  1  0
 13 24  1  0
 13 14  1  0
 14 15  2  0
 14 42  1  0
 15 16  1  0
 15 23  1  0
 16 17  3  0
 17 18  1  0
 18 22  1  0
 18 19  2  0
 19 20  1  0
 20 21  2  0
 20 43  1  0
 21 22  1  0
 21 44  1  0
 23 24  2  0
M  CHG  1   5  -1
M  END
>  <i_m_ct_stereo_status>  (279) 
1

>  <s_m_source_file>  (279) 
/var/tmp/pbs.5083858.sched01/tmpmxhk20_f/110jarzbz3x.sdf

>  <i_m_source_file_index>  (279) 
5

>  <i_lp_mmshare_version>  (279) 
48012

>  <i_f3d_flags>  (279) 
0

>  <s_epik_input>  (279) 
Tz1DKFtPSF0pW0NAQEhdKFtDSDNdKVtDQEBIXTFbQ0gyXVtDSDJdW0NASF0oTzEpW0NIMl1bQ0BIXShbQ0gzXSluMltjSF1jKG5uMilDI0NjM25bY0hdW2NIXXMz

>  <s_epik_cmdline>  (279) 
J2VwaWtfcHl0aG9uJywgJy1waHQnLCAnMi4wJywgJy1waCcsICc3LjAnLCAnLXRuJywgJzgnLCAnLW1hJywgJzIwMCcsICctaW1hZScsICc8aW5maWxlLm1hZT4nLCAnLW9tYWUnLCAnPG91dGZpbGUubWFlPic=

>  <r_epik_Ionization_Penalty>  (279) 
0.00113321

>  <r_epik_Ionization_Penalty_Charging>  (279) 
0.00113309

>  <r_epik_Ionization_Penalty_Neutral>  (279) 
1.23835e-07

>  <r_epik_State_Penalty>  (279) 
0.000744872

>  <r_epik_Charging_Adjusted_Penalty>  (279) 
0.00187796

>  <i_epik_Tot_Q>  (279) 
-1

>  <i_epik_Tot_abs_Q>  (279) 
1

>  <s_lp_Force_Field>  (279) 
OPLS3e

>  <r_lp_Energy>  (279) 
-1.13078

>  <b_lp_Chiralities_Consistent>  (279) 
1

>  <s_lp_Variant>  (279) 
78:0-1

>  <s_i_glide_gridfile>  (279) 
pfpi4k_grid

>  <i_i_glide_lignum>  (279) 
5

>  <i_i_glide_rotatable_bonds>  (279) 
7

>  <r_i_docking_score>  (279) 
-3.35833

>  <r_i_glide_ligand_efficiency>  (279) 
-0.134333

>  <r_i_glide_ligand_efficiency_sa>  (279) 
-0.392793

>  <r_i_glide_ligand_efficiency_ln>  (279) 
-0.796025

>  <r_i_glide_gscore>  (279) 
-3.35833

>  <r_i_glide_lipo>  (279) 
-0.00624736

>  <r_i_glide_hbond>  (279) 
-0.682955

>  <r_i_glide_metal>  (279) 
-0

>  <r_i_glide_rewards>  (279) 
-0.958474

>  <r_i_glide_evdw>  (279) 
-24.8514

>  <r_i_glide_ecoul>  (279) 
-8.03487

>  <r_i_glide_erotb>  (279) 
0.890219

>  <r_i_glide_esite>  (279) 
-0.153075

>  <r_i_glide_emodel>  (279) 
-42.4895

>  <r_i_glide_energy>  (279) 
-32.8863

>  <r_i_glide_einternal>  (279) 
1.77433

>  <r_i_glide_intrahb_reward>  (279) 
-0

>  <i_i_glide_confnum>  (279) 
7

>  <i_i_glide_posenum>  (279) 
27

>  <r_i_glide_eff_state_penalty>  (279) 
0

>  <ligand_id>  (279) 
78

>  <original_smiles>  (279) 
CC(C(=O)O)C1CCC(CC(C)n2cc(C#Cc3nccs3)nn2)O1

>  <smiles>  (279) 
[H]c1nc(C#Cc2nnn(C([H])(C([H])([H])[H])C([H])([H])C3([H])OC([H])(C([H])(C(=O)[O-])C([H])([H])[H])C([H])([H])C3([H])[H])c2[H])sc1[H]

$$$$
78:0:1
     RDKit          3D

 44 46  0  0  1  0  0  0  0  0999 V2000
   -1.0640    4.2679    7.8699 C   0  0  0  0  0  0  0  0  0  0  0  0
   -1.1798    3.1537    6.8110 C   0  0  2  0  0  0  0  0  0  0  0  0
   -2.3065    2.1767    7.2052 C   0  0  0  0  0  0  0  0  0  0  0  0
   -2.0582    0.9505    7.2878 O   0  0  0  0  0  0  0  0  0  0  0  0
   -3.4313    2.6768    7.4098 O   0  0  0  0  0  0  0  0  0  0  0  0
    0.1835    2.4729    6.5433 C   0  0  2  0  0  0  0  0  0  0  0  0
    1.1893    3.4094    5.8620 C   0  0  0  0  0  0  0  0  0  0  0  0
    2.0360    2.4541    5.0623 C   0  0  0  0  0  0  0  0  0  0  0  0
    0.9939    1.4267    4.6301 C   0  0  1  0  0  0  0  0  0  0  0  0
    1.5757    0.0215    4.4310 C   0  0  0  0  0  0  0  0  0  0  0  0
    2.2059   -0.2499    3.0398 C   0  0  2  0  0  0  0  0  0  0  0  0
    1.4007    0.3303    1.8595 C   0  0  0  0  0  0  0  0  0  0  0  0
    2.4012   -1.6853    2.8513 N   0  0  0  0  0  0  0  0  0  0  0  0
    1.5279   -2.7215    3.1367 C   0  0  0  0  0  0  0  0  0  0  0  0
    2.1888   -3.8481    2.7301 C   0  0  0  0  0  0  0  0  0  0  0  0
    1.7537   -5.2013    2.7775 C   0  0  0  0  0  0  0  0  0  0  0  0
    1.3643   -6.3590    2.8088 C   0  0  0  0  0  0  0  0  0  0  0  0
    0.8940   -7.7022    2.8419 C   0  0  0  0  0  0  0  0  0  0  0  0
   -0.3874   -8.0656    2.8915 N   0  0  0  0  0  0  0  0  0  0  0  0
   -0.5382   -9.4582    2.9160 C   0  0  0  0  0  0  0  0  0  0  0  0
    0.6481  -10.1408    2.8811 C   0  0  0  0  0  0  0  0  0  0  0  0
    2.0077   -9.0612    2.8133 S   0  0  0  0  0  0  0  0  0  0  0  0
    3.4214   -3.4609    2.1962 N   0  0  0  0  0  0  0  0  0  0  0  0
    3.5316   -2.1703    2.2644 N   0  0  0  0  0  0  0  0  0  0  0  0
    0.0631    1.3484    5.6841 O   0  0  0  0  0  0  0  0  0  0  0  0
   -2.0150    4.7793    8.0225 H   0  0  0  0  0  0  0  0  0  0  0  0
   -0.3348    5.0239    7.5808 H   0  0  0  0  0  0  0  0  0  0  0  0
   -0.7518    3.8572    8.8307 H   0  0  0  0  0  0  0  0  0  0  0  0
   -1.5135    3.6060    5.8775 H   0  0  0  0  0  0  0  0  0  0  0  0
    0.6001    2.0816    7.4728 H   0  0  0  0  0  0  0  0  0  0  0  0
    0.6729    4.0966    5.1895 H   0  0  0  0  0  0  0  0  0  0  0  0
    1.7671    3.9889    6.5818 H   0  0  0  0  0  0  0  0  0  0  0  0
    2.5384    2.9253    4.2135 H   0  0  0  0  0  0  0  0  0  0  0  0
    2.7840    1.9953    5.7144 H   0  0  0  0  0  0  0  0  0  0  0  0
    0.4114    1.7888    3.7737 H   0  0  0  0  0  0  0  0  0  0  0  0
    2.3212   -0.1977    5.2029 H   0  0  0  0  0  0  0  0  0  0  0  0
    0.7726   -0.6888    4.6288 H   0  0  0  0  0  0  0  0  0  0  0  0
    3.1948    0.2150    3.0237 H   0  0  0  0  0  0  0  0  0  0  0  0
    1.3453    1.4159    1.9080 H   0  0  0  0  0  0  0  0  0  0  0  0
    0.3814   -0.0556    1.8601 H   0  0  0  0  0  0  0  0  0  0  0  0
    1.8559    0.0947    0.8961 H   0  0  0  0  0  0  0  0  0  0  0  0
    0.5482   -2.5894    3.5663 H   0  0  0  0  0  0  0  0  0  0  0  0
   -1.5288   -9.8783    2.9676 H   0  0  0  0  0  0  0  0  0  0  0  0
    0.8043  -11.2052    2.8950 H   0  0  0  0  0  0  0  0  0  0  0  0
  1  2  1  0
  1 26  1  0
  1 27  1  0
  1 28  1  0
  2  3  1  0
  2  6  1  0
  2 29  1  6
  3  4  2  0
  3  5  1  0
  6 25  1  0
  6  7  1  0
  6 30  1  1
  7  8  1  0
  7 31  1  0
  7 32  1  0
  8  9  1  0
  8 33  1  0
  8 34  1  0
  9 10  1  0
  9 25  1  0
  9 35  1  6
 10 11  1  0
 10 36  1  0
 10 37  1  0
 11 12  1  0
 11 13  1  0
 11 38  1  1
 12 39  1  0
 12 40  1  0
 12 41  1  0
 13 24  1  0
 13 14  1  0
 14 15  2  0
 14 42  1  0
 15 16  1  0
 15 23  1  0
 16 17  3  0
 17 18  1  0
 18 22  1  0
 18 19  2  0
 19 20  1  0
 20 21  2  0
 20 43  1  0
 21 22  1  0
 21 44  1  0
 23 24  2  0
M  CHG  1   5  -1
M  END
>  <i_m_ct_stereo_status>  (280) 
1

>  <s_m_source_file>  (280) 
/var/tmp/pbs.5083858.sched01/tmpmxhk20_f/110jarzbz3x.sdf

>  <i_m_source_file_index>  (280) 
5

>  <i_lp_mmshare_version>  (280) 
48012

>  <i_f3d_flags>  (280) 
0

>  <s_epik_input>  (280) 
Tz1DKFtPSF0pW0NAQEhdKFtDSDNdKVtDQEBIXTFbQ0gyXVtDSDJdW0NASF0oTzEpW0NIMl1bQ0BIXShbQ0gzXSluMltjSF1jKG5uMilDI0NjM25bY0hdW2NIXXMz

>  <s_epik_cmdline>  (280) 
J2VwaWtfcHl0aG9uJywgJy1waHQnLCAnMi4wJywgJy1waCcsICc3LjAnLCAnLXRuJywgJzgnLCAnLW1hJywgJzIwMCcsICctaW1hZScsICc8aW5maWxlLm1hZT4nLCAnLW9tYWUnLCAnPG91dGZpbGUubWFlPic=

>  <r_epik_Ionization_Penalty>  (280) 
0.00113321

>  <r_epik_Ionization_Penalty_Charging>  (280) 
0.00113309

>  <r_epik_Ionization_Penalty_Neutral>  (280) 
1.23835e-07

>  <r_epik_State_Penalty>  (280) 
0.000744872

>  <r_epik_Charging_Adjusted_Penalty>  (280) 
0.00187796

>  <i_epik_Tot_Q>  (280) 
-1

>  <i_epik_Tot_abs_Q>  (280) 
1

>  <s_lp_Force_Field>  (280) 
OPLS3e

>  <r_lp_Energy>  (280) 
-1.13078

>  <b_lp_Chiralities_Consistent>  (280) 
1

>  <s_lp_Variant>  (280) 
78:0-1

>  <s_i_glide_gridfile>  (280) 
pfpi4k_grid

>  <i_i_glide_lignum>  (280) 
5

>  <i_i_glide_rotatable_bonds>  (280) 
7

>  <r_i_docking_score>  (280) 
-2.42696

>  <r_i_glide_ligand_efficiency>  (280) 
-0.0970784

>  <r_i_glide_ligand_efficiency_sa>  (280) 
-0.283859

>  <r_i_glide_ligand_efficiency_ln>  (280) 
-0.575262

>  <r_i_glide_gscore>  (280) 
-2.42696

>  <r_i_glide_lipo>  (280) 
-0.138546

>  <r_i_glide_hbond>  (280) 
-0.2

>  <r_i_glide_metal>  (280) 
-0

>  <r_i_glide_rewards>  (280) 
-0.958474

>  <r_i_glide_evdw>  (280) 
-21.7504

>  <r_i_glide_ecoul>  (280) 
-6.1344

>  <r_i_glide_erotb>  (280) 
0.890219

>  <r_i_glide_esite>  (280) 
-0.0124797

>  <r_i_glide_emodel>  (280) 
-32.952

>  <r_i_glide_energy>  (280) 
-27.8848

>  <r_i_glide_einternal>  (280) 
4.50975

>  <r_i_glide_intrahb_reward>  (280) 
-0

>  <i_i_glide_confnum>  (280) 
9

>  <i_i_glide_posenum>  (280) 
2

>  <r_i_glide_eff_state_penalty>  (280) 
0

>  <ligand_id>  (280) 
78

>  <original_smiles>  (280) 
CC(C(=O)O)C1CCC(CC(C)n2cc(C#Cc3nccs3)nn2)O1

>  <smiles>  (280) 
[H]c1nc(C#Cc2nnn(C([H])(C([H])([H])[H])C([H])([H])C3([H])OC([H])(C([H])(C(=O)[O-])C([H])([H])[H])C([H])([H])C3([H])[H])c2[H])sc1[H]

$$$$
78:0:2
     RDKit          3D

 44 46  0  0  1  0  0  0  0  0999 V2000
   -0.1560   -9.0234    2.2737 C   0  0  0  0  0  0  0  0  0  0  0  0
    0.1155   -8.0835    3.4618 C   0  0  2  0  0  0  0  0  0  0  0  0
    0.4563   -6.6633    2.9380 C   0  0  0  0  0  0  0  0  0  0  0  0
    1.3200   -5.9667    3.5153 O   0  0  0  0  0  0  0  0  0  0  0  0
   -0.1937   -6.2617    1.9516 O   0  0  0  0  0  0  0  0  0  0  0  0
    1.1587   -8.7019    4.4637 C   0  0  2  0  0  0  0  0  0  0  0  0
    0.6083   -9.8941    5.2606 C   0  0  0  0  0  0  0  0  0  0  0  0
    0.1005   -9.2851    6.5615 C   0  0  0  0  0  0  0  0  0  0  0  0
    0.4418   -7.7953    6.4415 C   0  0  1  0  0  0  0  0  0  0  0  0
    0.8552   -7.1280    7.7563 C   0  0  0  0  0  0  0  0  0  0  0  0
    1.5112   -5.7328    7.5677 C   0  0  2  0  0  0  0  0  0  0  0  0
    2.2716   -5.3166    8.8367 C   0  0  0  0  0  0  0  0  0  0  0  0
    0.5969   -4.6842    7.1136 N   0  0  0  0  0  0  0  0  0  0  0  0
    0.9019   -3.5355    6.4004 C   0  0  0  0  0  0  0  0  0  0  0  0
   -0.2963   -2.9060    6.2671 C   0  0  0  0  0  0  0  0  0  0  0  0
   -0.6047   -1.6875    5.6136 C   0  0  0  0  0  0  0  0  0  0  0  0
   -0.8487   -0.6344    5.0573 C   0  0  0  0  0  0  0  0  0  0  0  0
   -1.1313    0.6163    4.4442 C   0  0  0  0  0  0  0  0  0  0  0  0
   -1.7856    1.6266    5.0185 N   0  0  0  0  0  0  0  0  0  0  0  0
   -1.9044    2.7319    4.1587 C   0  0  0  0  0  0  0  0  0  0  0  0
   -1.3284    2.5283    2.9360 C   0  0  0  0  0  0  0  0  0  0  0  0
   -0.5941    0.9530    2.8042 S   0  0  0  0  0  0  0  0  0  0  0  0
   -1.2741   -3.6613    6.9244 N   0  0  0  0  0  0  0  0  0  0  0  0
   -0.7279   -4.7138    7.4375 N   0  0  0  0  0  0  0  0  0  0  0  0
    1.5353   -7.8471    5.5442 O   0  0  0  0  0  0  0  0  0  0  0  0
   -0.9429   -8.6387    1.6299 H   0  0  0  0  0  0  0  0  0  0  0  0
   -0.4821  -10.0188    2.5701 H   0  0  0  0  0  0  0  0  0  0  0  0
    0.7475   -9.1340    1.6821 H   0  0  0  0  0  0  0  0  0  0  0  0
   -0.8446   -7.9936    3.9649 H   0  0  0  0  0  0  0  0  0  0  0  0
    2.0621   -8.9849    3.9130 H   0  0  0  0  0  0  0  0  0  0  0  0
   -0.1740  -10.4317    4.7349 H   0  0  0  0  0  0  0  0  0  0  0  0
    1.4110  -10.6025    5.4634 H   0  0  0  0  0  0  0  0  0  0  0  0
   -0.9661   -9.4607    6.7146 H   0  0  0  0  0  0  0  0  0  0  0  0
    0.6518   -9.7381    7.3865 H   0  0  0  0  0  0  0  0  0  0  0  0
   -0.3736   -7.2259    5.9905 H   0  0  0  0  0  0  0  0  0  0  0  0
   -0.0111   -7.0558    8.4146 H   0  0  0  0  0  0  0  0  0  0  0  0
    1.5651   -7.7713    8.2678 H   0  0  0  0  0  0  0  0  0  0  0  0
    2.2686   -5.8150    6.7841 H   0  0  0  0  0  0  0  0  0  0  0  0
    3.0222   -6.0632    9.0807 H   0  0  0  0  0  0  0  0  0  0  0  0
    1.6038   -5.2223    9.6903 H   0  0  0  0  0  0  0  0  0  0  0  0
    2.8039   -4.3751    8.7018 H   0  0  0  0  0  0  0  0  0  0  0  0
    1.8958   -3.2752    6.0641 H   0  0  0  0  0  0  0  0  0  0  0  0
   -2.4067    3.6364    4.4931 H   0  0  0  0  0  0  0  0  0  0  0  0
   -1.2699    3.2114    2.0998 H   0  0  0  0  0  0  0  0  0  0  0  0
  1  2  1  0
  1 26  1  0
  1 27  1  0
  1 28  1  0
  2  3  1  0
  2  6  1  0
  2 29  1  1
  3  4  2  0
  3  5  1  0
  6 25  1  0
  6  7  1  0
  6 30  1  6
  7  8  1  0
  7 31  1  0
  7 32  1  0
  8  9  1  0
  8 33  1  0
  8 34  1  0
  9 10  1  0
  9 25  1  0
  9 35  1  6
 10 11  1  0
 10 36  1  0
 10 37  1  0
 11 12  1  0
 11 13  1  0
 11 38  1  6
 12 39  1  0
 12 40  1  0
 12 41  1  0
 13 24  1  0
 13 14  1  0
 14 15  2  0
 14 42  1  0
 15 16  1  0
 15 23  1  0
 16 17  3  0
 17 18  1  0
 18 22  1  0
 18 19  2  0
 19 20  1  0
 20 21  2  0
 20 43  1  0
 21 22  1  0
 21 44  1  0
 23 24  2  0
M  CHG  1   5  -1
M  END
>  <i_m_ct_stereo_status>  (281) 
1

>  <s_m_source_file>  (281) 
/var/tmp/pbs.5083858.sched01/tmpmxhk20_f/110jarzbz3x.sdf

>  <i_m_source_file_index>  (281) 
5

>  <i_lp_mmshare_version>  (281) 
48012

>  <i_f3d_flags>  (281) 
0

>  <s_epik_input>  (281) 
Tz1DKFtPSF0pW0NAQEhdKFtDSDNdKVtDQEBIXTFbQ0gyXVtDSDJdW0NASF0oTzEpW0NIMl1bQ0BIXShbQ0gzXSluMltjSF1jKG5uMilDI0NjM25bY0hdW2NIXXMz

>  <s_epik_cmdline>  (281) 
J2VwaWtfcHl0aG9uJywgJy1waHQnLCAnMi4wJywgJy1waCcsICc3LjAnLCAnLXRuJywgJzgnLCAnLW1hJywgJzIwMCcsICctaW1hZScsICc8aW5maWxlLm1hZT4nLCAnLW9tYWUnLCAnPG91dGZpbGUubWFlPic=

>  <r_epik_Ionization_Penalty>  (281) 
0.00113321

>  <r_epik_Ionization_Penalty_Charging>  (281) 
0.00113309

>  <r_epik_Ionization_Penalty_Neutral>  (281) 
1.23835e-07

>  <r_epik_State_Penalty>  (281) 
0.000744872

>  <r_epik_Charging_Adjusted_Penalty>  (281) 
0.00187796

>  <i_epik_Tot_Q>  (281) 
-1

>  <i_epik_Tot_abs_Q>  (281) 
1

>  <s_lp_Force_Field>  (281) 
OPLS3e

>  <r_lp_Energy>  (281) 
-1.13078

>  <b_lp_Chiralities_Consistent>  (281) 
1

>  <s_lp_Variant>  (281) 
78:0-1

>  <s_i_glide_gridfile>  (281) 
pfpi4k_grid

>  <i_i_glide_lignum>  (281) 
5

>  <i_i_glide_rotatable_bonds>  (281) 
7

>  <r_i_docking_score>  (281) 
-2.41635

>  <r_i_glide_ligand_efficiency>  (281) 
-0.096654

>  <r_i_glide_ligand_efficiency_sa>  (281) 
-0.282618

>  <r_i_glide_ligand_efficiency_ln>  (281) 
-0.572747

>  <r_i_glide_gscore>  (281) 
-2.41635

>  <r_i_glide_lipo>  (281) 
0

>  <r_i_glide_hbond>  (281) 
-0.345561

>  <r_i_glide_metal>  (281) 
-0

>  <r_i_glide_rewards>  (281) 
-0.958474

>  <r_i_glide_evdw>  (281) 
-23.4968

>  <r_i_glide_ecoul>  (281) 
-4.8418

>  <r_i_glide_erotb>  (281) 
0.890219

>  <r_i_glide_esite>  (281) 
-0.101424

>  <r_i_glide_emodel>  (281) 
-34.3947

>  <r_i_glide_energy>  (281) 
-28.3386

>  <r_i_glide_einternal>  (281) 
2.1503

>  <r_i_glide_intrahb_reward>  (281) 
-0

>  <i_i_glide_confnum>  (281) 
13

>  <i_i_glide_posenum>  (281) 
34

>  <r_i_glide_eff_state_penalty>  (281) 
0

>  <ligand_id>  (281) 
78

>  <original_smiles>  (281) 
CC(C(=O)O)C1CCC(CC(C)n2cc(C#Cc3nccs3)nn2)O1

>  <smiles>  (281) 
[H]c1nc(C#Cc2nnn(C([H])(C([H])([H])[H])C([H])([H])C3([H])OC([H])(C([H])(C(=O)[O-])C([H])([H])[H])C([H])([H])C3([H])[H])c2[H])sc1[H]

$$$$
79:0:0
     RDKit          3D

 59 64  0  0  1  0  0  0  0  0999 V2000
    2.5177   -8.2427    5.5316 C   0  0  0  0  0  0  0  0  0  0  0  0
    2.0655   -7.0416    4.6814 C   0  0  2  0  0  0  0  0  0  0  0  0
    0.5204   -6.9075    4.6945 C   0  0  1  0  0  0  0  0  0  0  0  0
    0.1813   -5.5635    4.3767 O   0  0  0  0  0  0  0  0  0  0  0  0
   -0.1734   -7.8937    3.7380 C   0  0  1  0  0  0  0  0  0  0  0  0
   -1.2005   -7.2617    2.9358 O   0  0  0  0  0  0  0  0  0  0  0  0
   -0.3789   -7.4422    1.7627 C   0  0  0  0  0  0  0  0  0  0  0  0
    0.5570   -8.3825    2.4936 C   0  0  1  0  0  0  0  0  0  0  0  0
    2.0675   -8.2465    2.3870 C   0  0  0  0  0  0  0  0  0  0  0  0
    2.6551   -7.0845    3.2441 C   0  0  2  0  0  0  0  0  0  0  0  0
    4.1877   -7.0990    3.1593 C   0  0  0  0  0  0  0  0  0  0  0  0
    4.4862   -6.2715    1.9260 C   0  0  0  0  0  0  0  0  0  0  0  0
    3.4018   -5.1767    1.9669 C   0  0  2  0  0  0  0  0  0  0  0  0
    2.7786   -4.8154    0.6123 C   0  0  0  0  0  0  0  0  0  0  0  0
    3.6826   -4.0346   -0.3372 C   0  0  0  0  0  0  0  0  0  0  0  0
    3.4143   -2.5524   -0.2767 C   0  0  2  0  0  0  0  0  0  0  0  0
    4.4581   -1.5289   -0.5291 C   0  0  2  0  0  0  0  0  0  0  0  0
    5.9327   -1.7027   -0.3624 C   0  0  0  0  0  0  0  0  0  0  0  0
    6.1927   -1.3500    1.1009 C   0  0  0  0  0  0  0  0  0  0  0  0
    4.9221   -1.7584    1.8753 C   0  0  2  0  0  0  0  0  0  0  0  0
    4.7103   -0.8212    3.0776 C   0  0  0  0  0  0  0  0  0  0  0  0
    5.0828   -3.2076    2.3979 C   0  0  0  0  0  0  0  0  0  0  0  0
    3.7879   -3.9403    2.8416 C   0  0  0  0  0  0  0  0  0  0  0  0
    3.8112   -1.6184    0.8440 C   0  0  2  0  0  0  0  0  0  0  0  0
    2.3303   -5.8380    2.6251 O   0  0  0  0  0  0  0  0  0  0  0  0
    2.1259   -9.1841    5.1525 H   0  0  0  0  0  0  0  0  0  0  0  0
    2.1661   -8.1285    6.5505 H   0  0  0  0  0  0  0  0  0  0  0  0
    3.6028   -8.3238    5.5748 H   0  0  0  0  0  0  0  0  0  0  0  0
    2.4913   -6.1574    5.1628 H   0  0  0  0  0  0  0  0  0  0  0  0
    0.1574   -7.0534    5.7060 H   0  0  0  0  0  0  0  0  0  0  0  0
    0.6995   -4.9763    4.8885 H   0  0  0  0  0  0  0  0  0  0  0  0
   -0.5394   -8.7725    4.2643 H   0  0  0  0  0  0  0  0  0  0  0  0
   -0.8997   -7.9066    0.9313 H   0  0  0  0  0  0  0  0  0  0  0  0
    0.1110   -6.5187    1.4547 H   0  0  0  0  0  0  0  0  0  0  0  0
    0.2172   -9.3985    2.2704 H   0  0  0  0  0  0  0  0  0  0  0  0
    2.5222   -9.1855    2.7104 H   0  0  0  0  0  0  0  0  0  0  0  0
    2.3512   -8.1410    1.3388 H   0  0  0  0  0  0  0  0  0  0  0  0
    4.6331   -6.6092    4.0276 H   0  0  0  0  0  0  0  0  0  0  0  0
    4.6253   -8.0940    3.0867 H   0  0  0  0  0  0  0  0  0  0  0  0
    5.5185   -5.9267    1.9312 H   0  0  0  0  0  0  0  0  0  0  0  0
    4.3682   -6.8834    1.0278 H   0  0  0  0  0  0  0  0  0  0  0  0
    2.4826   -5.7474    0.1307 H   0  0  0  0  0  0  0  0  0  0  0  0
    1.8431   -4.2671    0.7768 H   0  0  0  0  0  0  0  0  0  0  0  0
    4.7305   -4.2904   -0.2087 H   0  0  0  0  0  0  0  0  0  0  0  0
    3.4398   -4.3076   -1.3590 H   0  0  0  0  0  0  0  0  0  0  0  0
    2.4597   -2.3270   -0.7246 H   0  0  0  0  0  0  0  0  0  0  0  0
    4.1577   -0.6801   -1.1411 H   0  0  0  0  0  0  0  0  0  0  0  0
    6.2199   -2.7353   -0.5814 H   0  0  0  0  0  0  0  0  0  0  0  0
    6.4609   -1.0556   -1.0498 H   0  0  0  0  0  0  0  0  0  0  0  0
    7.0913   -1.8164    1.4756 H   0  0  0  0  0  0  0  0  0  0  0  0
    6.3177   -0.2704    1.1687 H   0  0  0  0  0  0  0  0  0  0  0  0
    3.8153   -1.0886    3.6408 H   0  0  0  0  0  0  0  0  0  0  0  0
    4.6047    0.2170    2.7631 H   0  0  0  0  0  0  0  0  0  0  0  0
    5.5559   -0.8734    3.7607 H   0  0  0  0  0  0  0  0  0  0  0  0
    5.6091   -3.7629    1.6327 H   0  0  0  0  0  0  0  0  0  0  0  0
    5.7839   -3.1972    3.2346 H   0  0  0  0  0  0  0  0  0  0  0  0
    2.9519   -3.2415    2.9135 H   0  0  0  0  0  0  0  0  0  0  0  0
    3.9471   -4.2738    3.8660 H   0  0  0  0  0  0  0  0  0  0  0  0
    3.0690   -0.8563    1.0714 H   0  0  0  0  0  0  0  0  0  0  0  0
  1  2  1  0
  1 26  1  0
  1 27  1  0
  1 28  1  0
  2 10  1  0
  2  3  1  0
  2 29  1  1
  3  4  1  0
  3  5  1  0
  3 30  1  1
  4 31  1  0
  5  8  1  0
  5  6  1  0
  5 32  1  1
  6  7  1  0
  7  8  1  0
  7 33  1  0
  7 34  1  0
  8  9  1  0
  8 35  1  6
  9 10  1  0
  9 36  1  0
  9 37  1  0
 10 25  1  6
 10 11  1  0
 11 12  1  0
 11 38  1  0
 11 39  1  0
 12 13  1  0
 12 40  1  0
 12 41  1  0
 13 23  1  0
 13 14  1  0
 13 25  1  1
 14 15  1  0
 14 42  1  0
 14 43  1  0
 15 16  1  0
 15 44  1  0
 15 45  1  0
 16 24  1  0
 16 17  1  0
 16 46  1  6
 17 24  1  0
 17 18  1  0
 17 47  1  6
 18 19  1  0
 18 48  1  0
 18 49  1  0
 19 20  1  0
 19 50  1  0
 19 51  1  0
 20 21  1  1
 20 22  1  0
 20 24  1  0
 21 52  1  0
 21 53  1  0
 21 54  1  0
 22 23  1  0
 22 55  1  0
 22 56  1  0
 23 57  1  0
 23 58  1  0
 24 59  1  1
M  END
>  <i_m_ct_stereo_status>  (282) 
1

>  <s_m_source_file>  (282) 
/var/tmp/pbs.5083858.sched01/tmpczimyggm/115kj__67b7.sdf

>  <i_m_source_file_index>  (282) 
1

>  <i_lp_mmshare_version>  (282) 
48012

>  <i_f3d_flags>  (282) 
0

>  <s_epik_input>  (282) 
TzFbQ0gyXVtDQEBIXShbQ0gyXTIpW0NASF0xW0NASF0oW09IXSlbQ0BASF0oW0NIM10pW0NAQF0yM1tDSDJdW0NIMl1bQ0BdNChPMylbQ0gyXVtDSDJdW0NAQEhdNVtDQEhdNltDQEBIXTVbQ0BdKFtDSDNdKShbQ0gyXVtDSDJdNilbQ0gyXVtDSDJdNA==

>  <s_epik_cmdline>  (282) 
J2VwaWtfcHl0aG9uJywgJy1waHQnLCAnMi4wJywgJy1waCcsICc3LjAnLCAnLXRuJywgJzgnLCAnLW1hJywgJzIwMCcsICctaW1hZScsICc8aW5maWxlLm1hZT4nLCAnLW9tYWUnLCAnPG91dGZpbGUubWFlPic=

>  <r_lp_tautomer_probability>  (282) 
1

>  <r_epik_Ionization_Penalty>  (282) 
5.85738e-08

>  <r_epik_Ionization_Penalty_Charging>  (282) 
0

>  <r_epik_Ionization_Penalty_Neutral>  (282) 
5.85738e-08

>  <r_epik_State_Penalty>  (282) 
-0

>  <r_epik_Charging_Adjusted_Penalty>  (282) 
0

>  <i_epik_Tot_Q>  (282) 
0

>  <i_epik_Tot_abs_Q>  (282) 
0

>  <s_lp_Force_Field>  (282) 
OPLS3e

>  <r_lp_Energy>  (282) 
48.4088

>  <b_lp_Chiralities_Consistent>  (282) 
1

>  <s_lp_Variant>  (282) 
79:0-1

>  <s_i_glide_gridfile>  (282) 
pfpi4k_grid

>  <i_i_glide_lignum>  (282) 
1

>  <i_i_glide_rotatable_bonds>  (282) 
1

>  <r_i_docking_score>  (282) 
-3.06463

>  <r_i_glide_ligand_efficiency>  (282) 
-0.122585

>  <r_i_glide_ligand_efficiency_sa>  (282) 
-0.358441

>  <r_i_glide_ligand_efficiency_ln>  (282) 
-0.726409

>  <r_i_glide_gscore>  (282) 
-3.06463

>  <r_i_glide_lipo>  (282) 
-0.396433

>  <r_i_glide_hbond>  (282) 
-0.111751

>  <r_i_glide_metal>  (282) 
-0

>  <r_i_glide_rewards>  (282) 
-1.04657

>  <r_i_glide_evdw>  (282) 
-24.4665

>  <r_i_glide_ecoul>  (282) 
-1.91038

>  <r_i_glide_erotb>  (282) 
0

>  <r_i_glide_esite>  (282) 
0

>  <r_i_glide_emodel>  (282) 
-31.4726

>  <r_i_glide_energy>  (282) 
-26.3768

>  <r_i_glide_einternal>  (282) 
0.359725

>  <r_i_glide_intrahb_reward>  (282) 
-0

>  <i_i_glide_confnum>  (282) 
2

>  <i_i_glide_posenum>  (282) 
29

>  <r_i_glide_eff_state_penalty>  (282) 
0

>  <ligand_id>  (282) 
79

>  <original_smiles>  (282) 
CC1C(O)C2OCC2CC12CCC1(CCC3C4CCC(C)(CC1)C34)O2

>  <smiles>  (282) 
[H]OC1([H])C2([H])OC([H])([H])C2([H])C([H])([H])C2(OC3(C([H])([H])C([H])([H])C4([H])C5([H])C([H])([H])C([H])([H])C(C([H])([H])[H])(C([H])([H])C3([H])[H])C45[H])C([H])([H])C2([H])[H])C1([H])C([H])([H])[H]

$$$$
79:0:1
     RDKit          3D

 59 64  0  0  1  0  0  0  0  0999 V2000
    2.6265   -8.3141    5.3749 C   0  0  0  0  0  0  0  0  0  0  0  0
    2.1645   -7.0833    4.5697 C   0  0  2  0  0  0  0  0  0  0  0  0
    0.6261   -6.9220    4.6566 C   0  0  1  0  0  0  0  0  0  0  0  0
    0.3161   -5.5586    4.4330 O   0  0  0  0  0  0  0  0  0  0  0  0
   -0.1257   -7.8695    3.7056 C   0  0  1  0  0  0  0  0  0  0  0  0
   -1.1594   -7.1800    2.9573 O   0  0  0  0  0  0  0  0  0  0  0  0
   -0.3912   -7.3767    1.7416 C   0  0  0  0  0  0  0  0  0  0  0  0
    0.5450   -8.3474    2.4285 C   0  0  1  0  0  0  0  0  0  0  0  0
    2.0535   -8.2458    2.2628 C   0  0  0  0  0  0  0  0  0  0  0  0
    2.7004   -7.1112    3.1088 C   0  0  2  0  0  0  0  0  0  0  0  0
    4.2291   -7.1579    2.9603 C   0  0  0  0  0  0  0  0  0  0  0  0
    4.4951   -6.3140    1.7298 C   0  0  0  0  0  0  0  0  0  0  0  0
    3.4342   -5.2008    1.8345 C   0  0  2  0  0  0  0  0  0  0  0  0
    2.7717   -4.7910    0.5115 C   0  0  0  0  0  0  0  0  0  0  0  0
    3.6463   -4.0045   -0.4601 C   0  0  0  0  0  0  0  0  0  0  0  0
    3.4149   -2.5249   -0.3425 C   0  0  2  0  0  0  0  0  0  0  0  0
    4.4668   -1.5143   -0.6213 C   0  0  2  0  0  0  0  0  0  0  0  0
    5.9416   -1.7337   -0.5145 C   0  0  0  0  0  0  0  0  0  0  0  0
    6.2775   -1.4181    0.9421 C   0  0  0  0  0  0  0  0  0  0  0  0
    5.0250   -1.8069    1.7562 C   0  0  2  0  0  0  0  0  0  0  0  0
    4.8803   -0.8898    2.9839 C   0  0  0  0  0  0  0  0  0  0  0  0
    5.1657   -3.2716    2.2410 C   0  0  0  0  0  0  0  0  0  0  0  0
    3.8725   -3.9903    2.7162 C   0  0  0  0  0  0  0  0  0  0  0  0
    3.8746   -1.6146    0.7779 C   0  0  2  0  0  0  0  0  0  0  0  0
    2.3673   -5.8545    2.5152 O   0  0  0  0  0  0  0  0  0  0  0  0
    2.1983   -9.2398    4.9902 H   0  0  0  0  0  0  0  0  0  0  0  0
    2.3182   -8.2176    6.4105 H   0  0  0  0  0  0  0  0  0  0  0  0
    3.7131   -8.4216    5.3695 H   0  0  0  0  0  0  0  0  0  0  0  0
    2.6235   -6.2146    5.0529 H   0  0  0  0  0  0  0  0  0  0  0  0
    0.3127   -7.1043    5.6788 H   0  0  0  0  0  0  0  0  0  0  0  0
   -0.5288   -5.3743    4.8019 H   0  0  0  0  0  0  0  0  0  0  0  0
   -0.4905   -8.7551    4.2177 H   0  0  0  0  0  0  0  0  0  0  0  0
   -0.9527   -7.8479    0.9388 H   0  0  0  0  0  0  0  0  0  0  0  0
    0.1106   -6.4645    1.4158 H   0  0  0  0  0  0  0  0  0  0  0  0
    0.1729   -9.3507    2.1960 H   0  0  0  0  0  0  0  0  0  0  0  0
    2.4968   -9.2034    2.5439 H   0  0  0  0  0  0  0  0  0  0  0  0
    2.2960   -8.1214    1.2073 H   0  0  0  0  0  0  0  0  0  0  0  0
    4.7186   -6.6942    3.8192 H   0  0  0  0  0  0  0  0  0  0  0  0
    4.6371   -8.1627    2.8594 H   0  0  0  0  0  0  0  0  0  0  0  0
    5.5368   -5.9963    1.7035 H   0  0  0  0  0  0  0  0  0  0  0  0
    4.3312   -6.9139    0.8308 H   0  0  0  0  0  0  0  0  0  0  0  0
    2.4351   -5.7006    0.0186 H   0  0  0  0  0  0  0  0  0  0  0  0
    1.8611   -4.2301    0.7286 H   0  0  0  0  0  0  0  0  0  0  0  0
    4.6901   -4.2795   -0.3743 H   0  0  0  0  0  0  0  0  0  0  0  0
    3.3558   -4.2530   -1.4757 H   0  0  0  0  0  0  0  0  0  0  0  0
    2.4536   -2.2650   -0.7522 H   0  0  0  0  0  0  0  0  0  0  0  0
    4.1636   -0.6524   -1.2033 H   0  0  0  0  0  0  0  0  0  0  0  0
    6.2073   -2.7604   -0.7752 H   0  0  0  0  0  0  0  0  0  0  0  0
    6.4392   -1.0743   -1.2140 H   0  0  0  0  0  0  0  0  0  0  0  0
    7.1841   -1.9083    1.2797 H   0  0  0  0  0  0  0  0  0  0  0  0
    6.4338   -0.3420    1.0228 H   0  0  0  0  0  0  0  0  0  0  0  0
    4.0012   -1.1497    3.5748 H   0  0  0  0  0  0  0  0  0  0  0  0
    4.7827    0.1562    2.6916 H   0  0  0  0  0  0  0  0  0  0  0  0
    5.7498   -0.9707    3.6332 H   0  0  0  0  0  0  0  0  0  0  0  0
    5.6590   -3.8236    1.4481 H   0  0  0  0  0  0  0  0  0  0  0  0
    5.8823   -3.2869    3.0625 H   0  0  0  0  0  0  0  0  0  0  0  0
    3.0565   -3.2752    2.8404 H   0  0  0  0  0  0  0  0  0  0  0  0
    4.0680   -4.3470    3.7281 H   0  0  0  0  0  0  0  0  0  0  0  0
    3.1588   -0.8436    1.0461 H   0  0  0  0  0  0  0  0  0  0  0  0
  1  2  1  0
  1 26  1  0
  1 27  1  0
  1 28  1  0
  2 10  1  0
  2  3  1  0
  2 29  1  1
  3  4  1  0
  3  5  1  0
  3 30  1  1
  4 31  1  0
  5  8  1  0
  5  6  1  0
  5 32  1  1
  6  7  1  0
  7  8  1  0
  7 33  1  0
  7 34  1  0
  8  9  1  0
  8 35  1  6
  9 10  1  0
  9 36  1  0
  9 37  1  0
 10 25  1  6
 10 11  1  0
 11 12  1  0
 11 38  1  0
 11 39  1  0
 12 13  1  0
 12 40  1  0
 12 41  1  0
 13 23  1  0
 13 14  1  0
 13 25  1  1
 14 15  1  0
 14 42  1  0
 14 43  1  0
 15 16  1  0
 15 44  1  0
 15 45  1  0
 16 24  1  0
 16 17  1  0
 16 46  1  6
 17 24  1  0
 17 18  1  0
 17 47  1  6
 18 19  1  0
 18 48  1  0
 18 49  1  0
 19 20  1  0
 19 50  1  0
 19 51  1  0
 20 21  1  1
 20 22  1  0
 20 24  1  0
 21 52  1  0
 21 53  1  0
 21 54  1  0
 22 23  1  0
 22 55  1  0
 22 56  1  0
 23 57  1  0
 23 58  1  0
 24 59  1  1
M  END
>  <i_m_ct_stereo_status>  (283) 
1

>  <s_m_source_file>  (283) 
/var/tmp/pbs.5083858.sched01/tmpczimyggm/115kj__67b7.sdf

>  <i_m_source_file_index>  (283) 
1

>  <i_lp_mmshare_version>  (283) 
48012

>  <i_f3d_flags>  (283) 
0

>  <s_epik_input>  (283) 
TzFbQ0gyXVtDQEBIXShbQ0gyXTIpW0NASF0xW0NASF0oW09IXSlbQ0BASF0oW0NIM10pW0NAQF0yM1tDSDJdW0NIMl1bQ0BdNChPMylbQ0gyXVtDSDJdW0NAQEhdNVtDQEhdNltDQEBIXTVbQ0BdKFtDSDNdKShbQ0gyXVtDSDJdNilbQ0gyXVtDSDJdNA==

>  <s_epik_cmdline>  (283) 
J2VwaWtfcHl0aG9uJywgJy1waHQnLCAnMi4wJywgJy1waCcsICc3LjAnLCAnLXRuJywgJzgnLCAnLW1hJywgJzIwMCcsICctaW1hZScsICc8aW5maWxlLm1hZT4nLCAnLW9tYWUnLCAnPG91dGZpbGUubWFlPic=

>  <r_lp_tautomer_probability>  (283) 
1

>  <r_epik_Ionization_Penalty>  (283) 
5.85738e-08

>  <r_epik_Ionization_Penalty_Charging>  (283) 
0

>  <r_epik_Ionization_Penalty_Neutral>  (283) 
5.85738e-08

>  <r_epik_State_Penalty>  (283) 
-0

>  <r_epik_Charging_Adjusted_Penalty>  (283) 
0

>  <i_epik_Tot_Q>  (283) 
0

>  <i_epik_Tot_abs_Q>  (283) 
0

>  <s_lp_Force_Field>  (283) 
OPLS3e

>  <r_lp_Energy>  (283) 
48.4088

>  <b_lp_Chiralities_Consistent>  (283) 
1

>  <s_lp_Variant>  (283) 
79:0-1

>  <s_i_glide_gridfile>  (283) 
pfpi4k_grid

>  <i_i_glide_lignum>  (283) 
1

>  <i_i_glide_rotatable_bonds>  (283) 
1

>  <r_i_docking_score>  (283) 
-3.02105

>  <r_i_glide_ligand_efficiency>  (283) 
-0.120842

>  <r_i_glide_ligand_efficiency_sa>  (283) 
-0.353344

>  <r_i_glide_ligand_efficiency_ln>  (283) 
-0.716078

>  <r_i_glide_gscore>  (283) 
-3.02105

>  <r_i_glide_lipo>  (283) 
-0.386063

>  <r_i_glide_hbond>  (283) 
-0.138437

>  <r_i_glide_metal>  (283) 
-0

>  <r_i_glide_rewards>  (283) 
-1.04657

>  <r_i_glide_evdw>  (283) 
-24.7062

>  <r_i_glide_ecoul>  (283) 
-1.43113

>  <r_i_glide_erotb>  (283) 
0

>  <r_i_glide_esite>  (283) 
0

>  <r_i_glide_emodel>  (283) 
-30.8424

>  <r_i_glide_energy>  (283) 
-26.1373

>  <r_i_glide_einternal>  (283) 
0.902712

>  <r_i_glide_intrahb_reward>  (283) 
-0

>  <i_i_glide_confnum>  (283) 
4

>  <i_i_glide_posenum>  (283) 
5

>  <r_i_glide_eff_state_penalty>  (283) 
0

>  <ligand_id>  (283) 
79

>  <original_smiles>  (283) 
CC1C(O)C2OCC2CC12CCC1(CCC3C4CCC(C)(CC1)C34)O2

>  <smiles>  (283) 
[H]OC1([H])C2([H])OC([H])([H])C2([H])C([H])([H])C2(OC3(C([H])([H])C([H])([H])C4([H])C5([H])C([H])([H])C([H])([H])C(C([H])([H])[H])(C([H])([H])C3([H])[H])C45[H])C([H])([H])C2([H])[H])C1([H])C([H])([H])[H]

$$$$
80:0:0
     RDKit          3D

 50 56  0  0  1  0  0  0  0  0999 V2000
    3.7092   -0.4698   -4.4294 C   0  0  0  0  0  0  0  0  0  0  0  0
    3.2195   -1.8071   -3.8807 C   0  0  0  0  0  0  0  0  0  0  0  0
    4.2191   -2.3308   -3.0025 O   0  0  0  0  0  0  0  0  0  0  0  0
    3.7197   -3.3329   -2.1132 C   0  0  2  0  0  0  0  0  0  0  0  0
    2.6493   -2.6704   -1.0675 C   0  0  0  0  0  0  0  0  0  0  0  0
    3.1189   -3.2915    0.2598 C   0  0  1  0  0  0  0  0  0  0  0  0
    3.1890   -3.1405    1.7895 C   0  0  0  0  0  0  0  0  0  0  0  0
    3.5301   -1.9505    2.5657 C   0  0  0  0  0  0  0  0  0  0  0  0
    3.5415   -2.1530    3.9641 C   0  0  0  0  0  0  0  0  0  0  0  0
    3.5727   -3.4562    4.4976 C   0  0  0  0  0  0  0  0  0  0  0  0
    3.7879   -4.5578    3.6409 C   0  0  0  0  0  0  0  0  0  0  0  0
    4.1351   -5.7598    4.1728 O   0  0  0  0  0  0  0  0  0  0  0  0
    3.7113   -4.4014    2.2525 C   0  0  0  0  0  0  0  0  0  0  0  0
    4.3673   -5.3072    1.3283 O   0  0  0  0  0  0  0  0  0  0  0  0
    4.2285   -5.2383   -0.1788 C   0  0  1  0  0  0  0  0  0  0  0  0
    2.8052   -4.7892   -0.1179 C   0  0  1  0  0  0  0  0  0  0  0  0
    1.8175   -5.5201    0.6115 O   0  0  0  0  0  0  0  0  0  0  0  0
    4.9115   -4.1125   -1.2752 C   0  0  2  0  0  0  0  0  0  0  0  0
    5.5943   -2.8629   -0.6493 C   0  0  1  0  0  0  0  0  0  0  0  0
    6.9893   -2.6781   -0.0550 C   0  0  1  0  0  0  0  0  0  0  0  0
    7.8570   -2.2619   -1.0893 O   0  0  0  0  0  0  0  0  0  0  0  0
    6.8065   -1.4904    1.0382 C   0  0  0  0  0  0  0  0  0  0  0  0
    5.4540   -0.8408    0.8619 N   0  0  2  0  0  0  0  0  0  0  0  0
    4.3237   -0.7234    1.9083 C   0  0  0  0  0  0  0  0  0  0  0  0
    4.9388   -1.5078   -0.2929 C   0  0  2  0  0  0  0  0  0  0  0  0
    4.5617   -2.7699    0.3011 C   0  0  1  0  0  0  0  0  0  0  0  0
    2.9637   -0.0072   -5.0743 H   0  0  0  0  0  0  0  0  0  0  0  0
    4.6134   -0.6054   -5.0100 H   0  0  0  0  0  0  0  0  0  0  0  0
    3.9186    0.2295   -3.6190 H   0  0  0  0  0  0  0  0  0  0  0  0
    2.2718   -1.6293   -3.3756 H   0  0  0  0  0  0  0  0  0  0  0  0
    3.0075   -2.5094   -4.6889 H   0  0  0  0  0  0  0  0  0  0  0  0
    3.2197   -4.0340   -2.7720 H   0  0  0  0  0  0  0  0  0  0  0  0
    2.6201   -1.5897   -1.0707 H   0  0  0  0  0  0  0  0  0  0  0  0
    1.6405   -2.9918   -1.3286 H   0  0  0  0  0  0  0  0  0  0  0  0
    3.6747   -1.3123    4.6329 H   0  0  0  0  0  0  0  0  0  0  0  0
    3.6513   -3.5932    5.5610 H   0  0  0  0  0  0  0  0  0  0  0  0
    4.2746   -6.4209    3.5114 H   0  0  0  0  0  0  0  0  0  0  0  0
    4.2866   -6.2515   -0.5890 H   0  0  0  0  0  0  0  0  0  0  0  0
    2.3213   -4.9345   -1.0780 H   0  0  0  0  0  0  0  0  0  0  0  0
    1.9465   -6.4368    0.4199 H   0  0  0  0  0  0  0  0  0  0  0  0
    5.6023   -4.5995   -1.9559 H   0  0  0  0  0  0  0  0  0  0  0  0
    7.3845   -3.5824    0.4030 H   0  0  0  0  0  0  0  0  0  0  0  0
    8.0961   -3.0057   -1.6342 H   0  0  0  0  0  0  0  0  0  0  0  0
    6.9016   -1.8565    2.0606 H   0  0  0  0  0  0  0  0  0  0  0  0
    7.5900   -0.7375    0.9134 H   0  0  0  0  0  0  0  0  0  0  0  0
    3.5484   -0.0972    1.4593 H   0  0  0  0  0  0  0  0  0  0  0  0
    4.7157   -0.1372    2.7457 H   0  0  0  0  0  0  0  0  0  0  0  0
    4.4982   -0.8919   -1.0636 H   0  0  0  0  0  0  0  0  0  0  0  0
    5.1953   -3.1712    1.0957 H   0  0  0  0  0  0  0  0  0  0  0  0
    5.6499    0.1027    0.5769 H   0  0  0  0  0  0  0  0  0  0  0  0
  1  2  1  0
  1 27  1  0
  1 28  1  0
  1 29  1  0
  2  3  1  0
  2 30  1  0
  2 31  1  0
  3  4  1  0
  4 18  1  0
  4  5  1  0
  4 32  1  6
  6  5  1  6
  5 33  1  0
  5 34  1  0
  6 16  1  0
  6 26  1  0
  6  7  1  0
  7 13  1  0
  7  8  2  0
  8 24  1  0
  8  9  1  0
  9 10  2  0
  9 35  1  0
 10 11  1  0
 10 36  1  0
 11 12  1  0
 11 13  2  0
 12 37  1  0
 13 14  1  0
 14 15  1  0
 15 16  1  0
 15 18  1  0
 15 38  1  6
 16 17  1  0
 16 39  1  6
 17 40  1  0
 18 19  1  0
 18 41  1  6
 19 25  1  0
 19 26  1  0
 19 20  1  1
 20 21  1  0
 20 22  1  0
 20 42  1  1
 21 43  1  0
 22 23  1  0
 22 44  1  0
 22 45  1  0
 23 24  1  0
 23 25  1  0
 23 50  1  6
 24 46  1  0
 24 47  1  0
 25 26  1  0
 25 48  1  6
 26 49  1  1
M  CHG  1  23   1
M  END
>  <i_m_ct_stereo_status>  (284) 
1

>  <s_m_source_file>  (284) 
/var/tmp/pbs.5083858.sched01/tmpczimyggm/115kj__67b7.sdf

>  <i_m_source_file_index>  (284) 
2

>  <i_lp_mmshare_version>  (284) 
48012

>  <i_f3d_flags>  (284) 
2

>  <s_epik_input>  (284) 
W09IXVtDQEhdMVtDSDJdTihbQ0gyXTIpW0NASF0oW0NASF0zNClDMTRbQ0BIXShbQ0BASF0oW0NIMl01KU9bQ0gyXVtDSDNdKVtDQEhdKFtDQEhdNltPSF0pT2M3YyhbT0hdKVtjSF1bY0hdYzJjN1tDQF0zNTY=

>  <s_epik_cmdline>  (284) 
J2VwaWtfcHl0aG9uJywgJy1waHQnLCAnMi4wJywgJy1waCcsICc3LjAnLCAnLXRuJywgJzgnLCAnLW1hJywgJzIwMCcsICctaW1hZScsICc8aW5maWxlLm1hZT4nLCAnLW9tYWUnLCAnPG91dGZpbGUubWFlPic=

>  <r_lp_tautomer_probability>  (284) 
1

>  <r_epik_Ionization_Penalty>  (284) 
0.0105209

>  <r_epik_Ionization_Penalty_Charging>  (284) 
0.0072657

>  <r_epik_Ionization_Penalty_Neutral>  (284) 
0.00325521

>  <r_epik_State_Penalty>  (284) 
0.00541897

>  <r_epik_Charging_Adjusted_Penalty>  (284) 
0.0126847

>  <i_epik_Tot_Q>  (284) 
1

>  <i_epik_Tot_abs_Q>  (284) 
1

>  <s_lp_Force_Field>  (284) 
OPLS3e

>  <r_lp_Energy>  (284) 
372.994

>  <b_lp_Chiralities_Consistent>  (284) 
0

>  <s_lp_Variant>  (284) 
80:0-1

>  <s_i_glide_gridfile>  (284) 
pfpi4k_grid

>  <i_i_glide_lignum>  (284) 
2

>  <i_i_glide_rotatable_bonds>  (284) 
5

>  <r_i_docking_score>  (284) 
-3.94288

>  <r_i_glide_ligand_efficiency>  (284) 
-0.151649

>  <r_i_glide_ligand_efficiency_sa>  (284) 
-0.449261

>  <r_i_glide_ligand_efficiency_ln>  (284) 
-0.925973

>  <r_i_glide_gscore>  (284) 
-3.94288

>  <r_i_glide_lipo>  (284) 
-0.535317

>  <r_i_glide_hbond>  (284) 
-0.16

>  <r_i_glide_metal>  (284) 
-0

>  <r_i_glide_rewards>  (284) 
-0.965398

>  <r_i_glide_evdw>  (284) 
-17.3675

>  <r_i_glide_ecoul>  (284) 
-10.4194

>  <r_i_glide_erotb>  (284) 
0.14912

>  <r_i_glide_esite>  (284) 
0

>  <r_i_glide_emodel>  (284) 
-33.3051

>  <r_i_glide_energy>  (284) 
-27.7869

>  <r_i_glide_einternal>  (284) 
2.25919

>  <r_i_glide_intrahb_reward>  (284) 
-0

>  <i_i_glide_confnum>  (284) 
3

>  <i_i_glide_posenum>  (284) 
22

>  <r_i_glide_eff_state_penalty>  (284) 
0

>  <ligand_id>  (284) 
80

>  <original_smiles>  (284) 
CCOC1CC23c4c5ccc(O)c4OC(C2O)C1C12C(O)CN(C5)C1C32

>  <smiles>  (284) 
[H]Oc1c([H])c([H])c2c3c1OC1([H])C([H])(O[H])C34C([H])([H])C([H])(OC([H])([H])C([H])([H])[H])C1([H])C13C([H])(O[H])C([H])([H])[N+]([H])(C2([H])[H])C1([H])C43[H]

$$$$
80:0:1
     RDKit          3D

 50 56  0  0  1  0  0  0  0  0999 V2000
    3.7067   -0.6790   -4.5058 C   0  0  0  0  0  0  0  0  0  0  0  0
    3.3925   -2.1261   -4.1404 C   0  0  0  0  0  0  0  0  0  0  0  0
    4.3437   -2.5541   -3.1643 O   0  0  0  0  0  0  0  0  0  0  0  0
    3.7959   -3.4571   -2.2040 C   0  0  2  0  0  0  0  0  0  0  0  0
    2.6556   -2.6999   -1.2981 C   0  0  0  0  0  0  0  0  0  0  0  0
    3.0451   -3.1928    0.1152 C   0  0  1  0  0  0  0  0  0  0  0  0
    3.0216   -2.8835    1.6212 C   0  0  0  0  0  0  0  0  0  0  0  0
    3.3134   -1.6202    2.2911 C   0  0  0  0  0  0  0  0  0  0  0  0
    3.2413   -1.6795    3.7000 C   0  0  0  0  0  0  0  0  0  0  0  0
    3.2457   -2.9206    4.3667 C   0  0  0  0  0  0  0  0  0  0  0  0
    3.5177   -4.1025    3.6396 C   0  0  0  0  0  0  0  0  0  0  0  0
    3.8407   -5.2387    4.3126 O   0  0  0  0  0  0  0  0  0  0  0  0
    3.5191   -4.0927    2.2405 C   0  0  0  0  0  0  0  0  0  0  0  0
    4.2377   -5.0756    1.4519 O   0  0  0  0  0  0  0  0  0  0  0  0
    4.2071   -5.1593   -0.0683 C   0  0  1  0  0  0  0  0  0  0  0  0
    2.7834   -4.7318   -0.1366 C   0  0  1  0  0  0  0  0  0  0  0  0
    1.8034   -5.4767    0.5871 O   0  0  0  0  0  0  0  0  0  0  0  0
    4.9368   -4.1278   -1.2227 C   0  0  2  0  0  0  0  0  0  0  0  0
    5.5663   -2.8228   -0.6766 C   0  0  1  0  0  0  0  0  0  0  0  0
    6.9312   -2.5820   -0.0250 C   0  0  1  0  0  0  0  0  0  0  0  0
    7.8517   -2.2584   -1.0511 O   0  0  0  0  0  0  0  0  0  0  0  0
    6.6793   -1.3089    0.9376 C   0  0  0  0  0  0  0  0  0  0  0  0
    5.3380   -0.6700    0.6070 N   0  0  2  0  0  0  0  0  0  0  0  0
    4.1369   -0.4572    1.5634 C   0  0  0  0  0  0  0  0  0  0  0  0
    4.8926   -1.4506   -0.5040 C   0  0  2  0  0  0  0  0  0  0  0  0
    4.4787   -2.6551    0.1929 C   0  0  1  0  0  0  0  0  0  0  0  0
    3.0039   -0.2877   -5.2404 H   0  0  0  0  0  0  0  0  0  0  0  0
    4.7029   -0.6055   -4.9219 H   0  0  0  0  0  0  0  0  0  0  0  0
    3.6613   -0.0392   -3.6241 H   0  0  0  0  0  0  0  0  0  0  0  0
    2.3596   -2.1743   -3.7988 H   0  0  0  0  0  0  0  0  0  0  0  0
    3.4256   -2.7799   -5.0094 H   0  0  0  0  0  0  0  0  0  0  0  0
    3.3647   -4.2434   -2.8140 H   0  0  0  0  0  0  0  0  0  0  0  0
    2.6204   -1.6246   -1.4325 H   0  0  0  0  0  0  0  0  0  0  0  0
    1.6567   -3.0366   -1.5801 H   0  0  0  0  0  0  0  0  0  0  0  0
    3.3306   -0.7725    4.2865 H   0  0  0  0  0  0  0  0  0  0  0  0
    3.2579   -2.9481    5.4435 H   0  0  0  0  0  0  0  0  0  0  0  0
    4.0923   -5.9470    3.7373 H   0  0  0  0  0  0  0  0  0  0  0  0
    4.2865   -6.2044   -0.3705 H   0  0  0  0  0  0  0  0  0  0  0  0
    2.3376   -4.9565   -1.1015 H   0  0  0  0  0  0  0  0  0  0  0  0
    2.1310   -5.5957    1.4698 H   0  0  0  0  0  0  0  0  0  0  0  0
    5.6920   -4.6366   -1.8078 H   0  0  0  0  0  0  0  0  0  0  0  0
    7.2990   -3.4400    0.5413 H   0  0  0  0  0  0  0  0  0  0  0  0
    8.0650   -3.0313   -1.5544 H   0  0  0  0  0  0  0  0  0  0  0  0
    6.7304   -1.5543    2.0008 H   0  0  0  0  0  0  0  0  0  0  0  0
    7.4793   -0.6053    0.7499 H   0  0  0  0  0  0  0  0  0  0  0  0
    3.3950    0.1130    1.0028 H   0  0  0  0  0  0  0  0  0  0  0  0
    4.4791    0.2129    2.3571 H   0  0  0  0  0  0  0  0  0  0  0  0
    4.4997   -0.9196   -1.3608 H   0  0  0  0  0  0  0  0  0  0  0  0
    5.0658   -2.9703    1.0586 H   0  0  0  0  0  0  0  0  0  0  0  0
    5.5471    0.2481    0.2424 H   0  0  0  0  0  0  0  0  0  0  0  0
  1  2  1  0
  1 27  1  0
  1 28  1  0
  1 29  1  0
  2  3  1  0
  2 30  1  0
  2 31  1  0
  3  4  1  0
  4 18  1  0
  4  5  1  0
  4 32  1  6
  6  5  1  6
  5 33  1  0
  5 34  1  0
  6 16  1  0
  6 26  1  0
  6  7  1  0
  7 13  1  0
  7  8  2  0
  8 24  1  0
  8  9  1  0
  9 10  2  0
  9 35  1  0
 10 11  1  0
 10 36  1  0
 11 12  1  0
 11 13  2  0
 12 37  1  0
 13 14  1  0
 14 15  1  0
 15 16  1  0
 15 18  1  0
 15 38  1  1
 16 17  1  0
 16 39  1  6
 17 40  1  0
 18 19  1  0
 18 41  1  6
 19 25  1  0
 19 26  1  0
 19 20  1  1
 20 21  1  0
 20 22  1  0
 20 42  1  1
 21 43  1  0
 22 23  1  0
 22 44  1  0
 22 45  1  0
 23 24  1  0
 23 25  1  0
 23 50  1  6
 24 46  1  0
 24 47  1  0
 25 26  1  0
 25 48  1  6
 26 49  1  1
M  CHG  1  23   1
M  END
>  <i_m_ct_stereo_status>  (285) 
1

>  <s_m_source_file>  (285) 
/var/tmp/pbs.5083858.sched01/tmpczimyggm/115kj__67b7.sdf

>  <i_m_source_file_index>  (285) 
2

>  <i_lp_mmshare_version>  (285) 
48012

>  <i_f3d_flags>  (285) 
2

>  <s_epik_input>  (285) 
W09IXVtDQEhdMVtDSDJdTihbQ0gyXTIpW0NASF0oW0NASF0zNClDMTRbQ0BIXShbQ0BASF0oW0NIMl01KU9bQ0gyXVtDSDNdKVtDQEhdKFtDQEhdNltPSF0pT2M3YyhbT0hdKVtjSF1bY0hdYzJjN1tDQF0zNTY=

>  <s_epik_cmdline>  (285) 
J2VwaWtfcHl0aG9uJywgJy1waHQnLCAnMi4wJywgJy1waCcsICc3LjAnLCAnLXRuJywgJzgnLCAnLW1hJywgJzIwMCcsICctaW1hZScsICc8aW5maWxlLm1hZT4nLCAnLW9tYWUnLCAnPG91dGZpbGUubWFlPic=

>  <r_lp_tautomer_probability>  (285) 
1

>  <r_epik_Ionization_Penalty>  (285) 
0.0105209

>  <r_epik_Ionization_Penalty_Charging>  (285) 
0.0072657

>  <r_epik_Ionization_Penalty_Neutral>  (285) 
0.00325521

>  <r_epik_State_Penalty>  (285) 
0.00541897

>  <r_epik_Charging_Adjusted_Penalty>  (285) 
0.0126847

>  <i_epik_Tot_Q>  (285) 
1

>  <i_epik_Tot_abs_Q>  (285) 
1

>  <s_lp_Force_Field>  (285) 
OPLS3e

>  <r_lp_Energy>  (285) 
372.994

>  <b_lp_Chiralities_Consistent>  (285) 
0

>  <s_lp_Variant>  (285) 
80:0-1

>  <s_i_glide_gridfile>  (285) 
pfpi4k_grid

>  <i_i_glide_lignum>  (285) 
2

>  <i_i_glide_rotatable_bonds>  (285) 
5

>  <r_i_docking_score>  (285) 
-3.84449

>  <r_i_glide_ligand_efficiency>  (285) 
-0.147865

>  <r_i_glide_ligand_efficiency_sa>  (285) 
-0.438049

>  <r_i_glide_ligand_efficiency_ln>  (285) 
-0.902866

>  <r_i_glide_gscore>  (285) 
-3.84449

>  <r_i_glide_lipo>  (285) 
-0.317592

>  <r_i_glide_hbond>  (285) 
-0.16

>  <r_i_glide_metal>  (285) 
-0

>  <r_i_glide_rewards>  (285) 
-0.965398

>  <r_i_glide_evdw>  (285) 
-17.3708

>  <r_i_glide_ecoul>  (285) 
-11.2139

>  <r_i_glide_erotb>  (285) 
0.14912

>  <r_i_glide_esite>  (285) 
0

>  <r_i_glide_emodel>  (285) 
-33.5738

>  <r_i_glide_energy>  (285) 
-28.5846

>  <r_i_glide_einternal>  (285) 
3.07401

>  <r_i_glide_intrahb_reward>  (285) 
-0

>  <i_i_glide_confnum>  (285) 
2

>  <i_i_glide_posenum>  (285) 
8

>  <r_i_glide_eff_state_penalty>  (285) 
0

>  <ligand_id>  (285) 
80

>  <original_smiles>  (285) 
CCOC1CC23c4c5ccc(O)c4OC(C2O)C1C12C(O)CN(C5)C1C32

>  <smiles>  (285) 
[H]Oc1c([H])c([H])c2c3c1OC1([H])C([H])(O[H])C34C([H])([H])C([H])(OC([H])([H])C([H])([H])[H])C1([H])C13C([H])(O[H])C([H])([H])[N+]([H])(C2([H])[H])C1([H])C43[H]

$$$$
80:0:2
     RDKit          3D

 50 56  0  0  1  0  0  0  0  0999 V2000
    3.0226   -0.3751   -3.4553 C   0  0  0  0  0  0  0  0  0  0  0  0
    3.4697   -1.7718   -3.9560 C   0  0  0  0  0  0  0  0  0  0  0  0
    4.4475   -2.4003   -3.1056 O   0  0  0  0  0  0  0  0  0  0  0  0
    3.9177   -3.3089   -2.1350 C   0  0  2  0  0  0  0  0  0  0  0  0
    2.8293   -2.5849   -1.1375 C   0  0  0  0  0  0  0  0  0  0  0  0
    3.2160   -3.1647    0.2038 C   0  0  1  0  0  0  0  0  0  0  0  0
    3.2595   -2.9026    1.7121 C   0  0  0  0  0  0  0  0  0  0  0  0
    3.5920   -1.6728    2.4284 C   0  0  0  0  0  0  0  0  0  0  0  0
    3.5387   -1.7881    3.8268 C   0  0  0  0  0  0  0  0  0  0  0  0
    3.5169   -3.0526    4.4426 C   0  0  0  0  0  0  0  0  0  0  0  0
    3.7304   -4.2145    3.6599 C   0  0  0  0  0  0  0  0  0  0  0  0
    4.0414   -5.3907    4.2670 O   0  0  0  0  0  0  0  0  0  0  0  0
    3.7284   -4.1421    2.2610 C   0  0  0  0  0  0  0  0  0  0  0  0
    4.3760   -5.1234    1.4183 O   0  0  0  0  0  0  0  0  0  0  0  0
    4.3123   -5.1262   -0.1034 C   0  0  1  0  0  0  0  0  0  0  0  0
    2.8967   -4.6594   -0.1138 C   0  0  1  0  0  0  0  0  0  0  0  0
    1.8640   -5.3341    0.6041 O   0  0  0  0  0  0  0  0  0  0  0  0
    5.0648   -4.0691   -1.2296 C   0  0  2  0  0  0  0  0  0  0  0  0
    5.7467   -2.8027   -0.6442 C   0  0  1  0  0  0  0  0  0  0  0  0
    7.1363   -2.6215   -0.0149 C   0  0  1  0  0  0  0  0  0  0  0  0
    8.0593   -2.2837   -1.0437 O   0  0  0  0  0  0  0  0  0  0  0  0
    6.9405   -1.3867    1.0094 C   0  0  0  0  0  0  0  0  0  0  0  0
    5.6082   -0.7008    0.7466 N   0  0  2  0  0  0  0  0  0  0  0  0
    4.4248   -0.5005    1.7379 C   0  0  0  0  0  0  0  0  0  0  0  0
    5.1216   -1.4196   -0.3731 C   0  0  2  0  0  0  0  0  0  0  0  0
    4.6760   -2.6588    0.2584 C   0  0  1  0  0  0  0  0  0  0  0  0
    2.3670    0.1223   -4.1801 H   0  0  0  0  0  0  0  0  0  0  0  0
    3.9019    0.2484   -3.2614 H   0  0  0  0  0  0  0  0  0  0  0  0
    2.4127   -0.4055   -2.5602 H   0  0  0  0  0  0  0  0  0  0  0  0
    2.6149   -2.4284   -4.1527 H   0  0  0  0  0  0  0  0  0  0  0  0
    3.9243   -1.6282   -4.9370 H   0  0  0  0  0  0  0  0  0  0  0  0
    3.4348   -4.0528   -2.7599 H   0  0  0  0  0  0  0  0  0  0  0  0
    2.8568   -1.5295   -0.9417 H   0  0  0  0  0  0  0  0  0  0  0  0
    1.8178   -2.8285   -1.4491 H   0  0  0  0  0  0  0  0  0  0  0  0
    3.6729   -0.9129    4.4573 H   0  0  0  0  0  0  0  0  0  0  0  0
    3.5682   -3.1342    5.5103 H   0  0  0  0  0  0  0  0  0  0  0  0
    4.1937   -6.0864    3.6438 H   0  0  0  0  0  0  0  0  0  0  0  0
    4.3452   -6.1549   -0.4472 H   0  0  0  0  0  0  0  0  0  0  0  0
    2.4477   -4.8258   -1.0810 H   0  0  0  0  0  0  0  0  0  0  0  0
    1.9862   -6.2607    0.5200 H   0  0  0  0  0  0  0  0  0  0  0  0
    5.7680   -4.6160   -1.8578 H   0  0  0  0  0  0  0  0  0  0  0  0
    7.4950   -3.5097    0.4972 H   0  0  0  0  0  0  0  0  0  0  0  0
    8.9661   -2.3217   -0.7519 H   0  0  0  0  0  0  0  0  0  0  0  0
    6.9909   -1.6716    2.0512 H   0  0  0  0  0  0  0  0  0  0  0  0
    7.7603   -0.7012    0.8713 H   0  0  0  0  0  0  0  0  0  0  0  0
    3.6969    0.1263    1.2248 H   0  0  0  0  0  0  0  0  0  0  0  0
    4.8010    0.1149    2.5434 H   0  0  0  0  0  0  0  0  0  0  0  0
    4.7263   -0.8467   -1.2000 H   0  0  0  0  0  0  0  0  0  0  0  0
    5.2733   -2.9990    1.0976 H   0  0  0  0  0  0  0  0  0  0  0  0
    5.8390    0.2358    0.4260 H   0  0  0  0  0  0  0  0  0  0  0  0
  1  2  1  0
  1 27  1  0
  1 28  1  0
  1 29  1  0
  2  3  1  0
  2 30  1  0
  2 31  1  0
  3  4  1  0
  4 18  1  0
  4  5  1  0
  4 32  1  6
  6  5  1  6
  5 33  1  0
  5 34  1  0
  6 16  1  0
  6 26  1  0
  6  7  1  0
  7 13  1  0
  7  8  2  0
  8 24  1  0
  8  9  1  0
  9 10  2  0
  9 35  1  0
 10 11  1  0
 10 36  1  0
 11 12  1  0
 11 13  2  0
 12 37  1  0
 13 14  1  0
 14 15  1  0
 15 16  1  0
 15 18  1  0
 15 38  1  6
 16 17  1  0
 16 39  1  6
 17 40  1  0
 18 19  1  0
 18 41  1  6
 19 25  1  0
 19 26  1  0
 19 20  1  1
 20 21  1  0
 20 22  1  0
 20 42  1  1
 21 43  1  0
 22 23  1  0
 22 44  1  0
 22 45  1  0
 23 24  1  0
 23 25  1  0
 23 50  1  6
 24 46  1  0
 24 47  1  0
 25 26  1  0
 25 48  1  6
 26 49  1  1
M  CHG  1  23   1
M  END
>  <i_m_ct_stereo_status>  (286) 
1

>  <s_m_source_file>  (286) 
/var/tmp/pbs.5083858.sched01/tmpczimyggm/115kj__67b7.sdf

>  <i_m_source_file_index>  (286) 
2

>  <i_lp_mmshare_version>  (286) 
48012

>  <i_f3d_flags>  (286) 
2

>  <s_epik_input>  (286) 
W09IXVtDQEhdMVtDSDJdTihbQ0gyXTIpW0NASF0oW0NASF0zNClDMTRbQ0BIXShbQ0BASF0oW0NIMl01KU9bQ0gyXVtDSDNdKVtDQEhdKFtDQEhdNltPSF0pT2M3YyhbT0hdKVtjSF1bY0hdYzJjN1tDQF0zNTY=

>  <s_epik_cmdline>  (286) 
J2VwaWtfcHl0aG9uJywgJy1waHQnLCAnMi4wJywgJy1waCcsICc3LjAnLCAnLXRuJywgJzgnLCAnLW1hJywgJzIwMCcsICctaW1hZScsICc8aW5maWxlLm1hZT4nLCAnLW9tYWUnLCAnPG91dGZpbGUubWFlPic=

>  <r_lp_tautomer_probability>  (286) 
1

>  <r_epik_Ionization_Penalty>  (286) 
0.0105209

>  <r_epik_Ionization_Penalty_Charging>  (286) 
0.0072657

>  <r_epik_Ionization_Penalty_Neutral>  (286) 
0.00325521

>  <r_epik_State_Penalty>  (286) 
0.00541897

>  <r_epik_Charging_Adjusted_Penalty>  (286) 
0.0126847

>  <i_epik_Tot_Q>  (286) 
1

>  <i_epik_Tot_abs_Q>  (286) 
1

>  <s_lp_Force_Field>  (286) 
OPLS3e

>  <r_lp_Energy>  (286) 
372.994

>  <b_lp_Chiralities_Consistent>  (286) 
0

>  <s_lp_Variant>  (286) 
80:0-1

>  <s_i_glide_gridfile>  (286) 
pfpi4k_grid

>  <i_i_glide_lignum>  (286) 
2

>  <i_i_glide_rotatable_bonds>  (286) 
5

>  <r_i_docking_score>  (286) 
-3.67767

>  <r_i_glide_ligand_efficiency>  (286) 
-0.141449

>  <r_i_glide_ligand_efficiency_sa>  (286) 
-0.419041

>  <r_i_glide_ligand_efficiency_ln>  (286) 
-0.863688

>  <r_i_glide_gscore>  (286) 
-3.67767

>  <r_i_glide_lipo>  (286) 
-0.393594

>  <r_i_glide_hbond>  (286) 
-0.16

>  <r_i_glide_metal>  (286) 
-0

>  <r_i_glide_rewards>  (286) 
-0.965398

>  <r_i_glide_evdw>  (286) 
-17.4146

>  <r_i_glide_ecoul>  (286) 
-9.28218

>  <r_i_glide_erotb>  (286) 
0.104384

>  <r_i_glide_esite>  (286) 
0

>  <r_i_glide_emodel>  (286) 
-30.0818

>  <r_i_glide_energy>  (286) 
-26.6968

>  <r_i_glide_einternal>  (286) 
3.33523

>  <r_i_glide_intrahb_reward>  (286) 
-0

>  <i_i_glide_confnum>  (286) 
3

>  <i_i_glide_posenum>  (286) 
12

>  <r_i_glide_eff_state_penalty>  (286) 
0

>  <ligand_id>  (286) 
80

>  <original_smiles>  (286) 
CCOC1CC23c4c5ccc(O)c4OC(C2O)C1C12C(O)CN(C5)C1C32

>  <smiles>  (286) 
[H]Oc1c([H])c([H])c2c3c1OC1([H])C([H])(O[H])C34C([H])([H])C([H])(OC([H])([H])C([H])([H])[H])C1([H])C13C([H])(O[H])C([H])([H])[N+]([H])(C2([H])[H])C1([H])C43[H]

$$$$
81:0:0
     RDKit          3D

 44 52  0  0  1  0  0  0  0  0999 V2000
    4.6119    0.1488    3.0224 O   0  0  0  0  0  0  0  0  0  0  0  0
    3.8329   -0.0363    2.0860 C   0  0  0  0  0  0  0  0  0  0  0  0
    2.5782    0.4481    2.0281 N   0  0  0  0  0  0  0  0  0  0  0  0
    2.0101    1.4176    2.9920 C   0  0  2  0  0  0  0  0  0  0  0  0
    2.2355    0.9633    4.5688 C   0  0  1  0  0  0  0  0  0  0  0  0
    1.3232    2.0257    4.5550 C   0  0  1  0  0  0  0  0  0  0  0  0
    0.2364    0.9063    3.5657 C   0  0  2  0  0  0  0  0  0  0  0  0
    0.3780    1.9547    2.7963 C   0  0  1  0  0  0  0  0  0  0  0  0
   -0.7793    1.4657    3.7974 C   0  0  1  0  0  0  0  0  0  0  0  0
   -0.0067   -0.1482    4.4762 C   0  0  1  0  0  0  0  0  0  0  0  0
    1.2159    0.0888    5.5221 C   0  0  2  0  0  0  0  0  0  0  0  0
    0.4096    1.0122    6.4577 C   0  0  1  0  0  0  0  0  0  0  0  0
    0.5447    2.3358    5.7841 C   0  0  2  0  0  0  0  0  0  0  0  0
   -0.8659    2.2924    5.2170 C   0  0  2  0  0  0  0  0  0  0  0  0
   -1.0577    1.0669    5.9920 C   0  0  2  0  0  0  0  0  0  0  0  0
   -2.1540    0.9193    6.8732 O   0  0  0  0  0  0  0  0  0  0  0  0
   -1.1183    0.3680    4.6792 C   0  0  1  0  0  0  0  0  0  0  0  0
    4.2513   -0.8029    0.8840 C   0  0  0  0  0  0  0  0  0  0  0  0
    3.4156   -1.1980   -0.0766 N   0  0  0  0  0  0  0  0  0  0  0  0
    4.0970   -1.9031   -1.0505 C   0  0  0  0  0  0  0  0  0  0  0  0
    3.5377   -2.4822   -2.2139 C   0  0  0  0  0  0  0  0  0  0  0  0
    4.3366   -3.1926   -3.1326 C   0  0  0  0  0  0  0  0  0  0  0  0
    5.7154   -3.3202   -2.8919 C   0  0  0  0  0  0  0  0  0  0  0  0
    6.3007   -2.7601   -1.7412 C   0  0  0  0  0  0  0  0  0  0  0  0
    5.4943   -2.0559   -0.8287 C   0  0  0  0  0  0  0  0  0  0  0  0
    5.9520   -1.2705    0.6825 S   0  0  0  0  0  0  0  0  0  0  0  0
    1.9971    0.1656    1.2433 H   0  0  0  0  0  0  0  0  0  0  0  0
    2.6625    2.2603    2.7075 H   0  0  0  0  0  0  0  0  0  0  0  0
    3.1782    1.2541    5.0293 H   0  0  0  0  0  0  0  0  0  0  0  0
    1.6705    3.0598    4.2822 H   0  0  0  0  0  0  0  0  0  0  0  0
    0.3635    0.2271    2.5673 H   0  0  0  0  0  0  0  0  0  0  0  0
    0.0250    1.9096    1.7618 H   0  0  0  0  0  0  0  0  0  0  0  0
   -1.7543    1.6211    3.1794 H   0  0  0  0  0  0  0  0  0  0  0  0
   -0.1485   -1.1775    4.0755 H   0  0  0  0  0  0  0  0  0  0  0  0
    1.6299   -0.8185    5.9680 H   0  0  0  0  0  0  0  0  0  0  0  0
    0.6148    1.0233    7.5292 H   0  0  0  0  0  0  0  0  0  0  0  0
    0.8203    3.1862    6.4120 H   0  0  0  0  0  0  0  0  0  0  0  0
   -1.5451    3.1364    5.3612 H   0  0  0  0  0  0  0  0  0  0  0  0
   -2.1339    1.6688    7.4471 H   0  0  0  0  0  0  0  0  0  0  0  0
   -1.9222   -0.3577    4.4668 H   0  0  0  0  0  0  0  0  0  0  0  0
    2.4779   -2.3830   -2.3844 H   0  0  0  0  0  0  0  0  0  0  0  0
    3.8890   -3.6467   -4.0087 H   0  0  0  0  0  0  0  0  0  0  0  0
    6.3437   -3.8538   -3.5828 H   0  0  0  0  0  0  0  0  0  0  0  0
    7.3536   -2.8761   -1.5482 H   0  0  0  0  0  0  0  0  0  0  0  0
  1  2  2  0
  2  3  1  0
  2 18  1  0
  3  4  1  0
  3 27  1  0
  4  8  1  0
  4  5  1  0
  4 28  1  1
  5 11  1  0
  5  6  1  0
  5 29  1  1
  6 13  1  0
  6  7  1  0
  6 30  1  6
  7 17  1  0
  7  8  1  0
  7 31  1  6
  8  9  1  0
  8 32  1  6
  9 14  1  0
  9 10  1  0
  9 33  1  6
 10 17  1  0
 10 11  1  0
 10 34  1  6
 11 12  1  0
 11 35  1  1
 12 15  1  0
 12 13  1  0
 12 36  1  1
 13 14  1  0
 13 37  1  1
 14 15  1  0
 14 38  1  6
 15 16  1  1
 15 17  1  0
 16 39  1  0
 17 40  1  6
 18 26  1  0
 18 19  2  0
 19 20  1  0
 20 25  2  0
 20 21  1  0
 21 22  2  0
 21 41  1  0
 22 23  1  0
 22 42  1  0
 23 24  2  0
 23 43  1  0
 24 25  1  0
 24 44  1  0
 25 26  1  0
M  END
>  <i_m_ct_stereo_status>  (287) 
1

>  <s_m_source_file>  (287) 
/var/tmp/pbs.5083858.sched01/tmpczimyggm/115kj__67b7.sdf

>  <i_m_source_file_index>  (287) 
3

>  <i_lp_mmshare_version>  (287) 
48012

>  <i_f3d_flags>  (287) 
2

>  <s_epik_input>  (287) 
W2NIXTFbY0hdW2NIXVtjSF1jKGMxMilzYyhuMilDKD1PKVtOSF1bQ0BIXTNbQ0BIXShbQ0BASF0oW0NIXTRbQ0BASF01NilbQ0BASF03W0NASF04OSlbQ0BIXTVbQ0BIXThbQ0hdM1tDQEhdNFtDQEBIXTlbQ0BdNjdbT0hd

>  <s_epik_cmdline>  (287) 
J2VwaWtfcHl0aG9uJywgJy1waHQnLCAnMi4wJywgJy1waCcsICc3LjAnLCAnLXRuJywgJzgnLCAnLW1hJywgJzIwMCcsICctaW1hZScsICc8aW5maWxlLm1hZT4nLCAnLW9tYWUnLCAnPG91dGZpbGUubWFlPic=

>  <r_lp_tautomer_probability>  (287) 
1

>  <r_epik_Ionization_Penalty>  (287) 
4.45329e-06

>  <r_epik_Ionization_Penalty_Charging>  (287) 
0

>  <r_epik_Ionization_Penalty_Neutral>  (287) 
4.45329e-06

>  <r_epik_State_Penalty>  (287) 
-0

>  <r_epik_Charging_Adjusted_Penalty>  (287) 
0

>  <i_epik_Tot_Q>  (287) 
0

>  <i_epik_Tot_abs_Q>  (287) 
0

>  <s_lp_Force_Field>  (287) 
OPLS3e

>  <r_lp_Energy>  (287) 
763.595

>  <b_lp_Chiralities_Consistent>  (287) 
0

>  <s_lp_Variant>  (287) 
81:0-1

>  <s_i_glide_gridfile>  (287) 
pfpi4k_grid

>  <i_i_glide_lignum>  (287) 
3

>  <i_i_glide_rotatable_bonds>  (287) 
4

>  <r_i_docking_score>  (287) 
-3.48493

>  <r_i_glide_ligand_efficiency>  (287) 
-0.134036

>  <r_i_glide_ligand_efficiency_sa>  (287) 
-0.39708

>  <r_i_glide_ligand_efficiency_ln>  (287) 
-0.818424

>  <r_i_glide_gscore>  (287) 
-3.48493

>  <r_i_glide_lipo>  (287) 
-0.514321

>  <r_i_glide_hbond>  (287) 
-0.171239

>  <r_i_glide_metal>  (287) 
-0

>  <r_i_glide_rewards>  (287) 
-0.97463

>  <r_i_glide_evdw>  (287) 
-30.8162

>  <r_i_glide_ecoul>  (287) 
-4.78732

>  <r_i_glide_erotb>  (287) 
0.438514

>  <r_i_glide_esite>  (287) 
-0.00434254

>  <r_i_glide_emodel>  (287) 
-43.5245

>  <r_i_glide_energy>  (287) 
-35.6036

>  <r_i_glide_einternal>  (287) 
1.35937

>  <r_i_glide_intrahb_reward>  (287) 
-0

>  <i_i_glide_confnum>  (287) 
6

>  <i_i_glide_posenum>  (287) 
3

>  <r_i_glide_eff_state_penalty>  (287) 
0

>  <ligand_id>  (287) 
81

>  <original_smiles>  (287) 
O=C(NC1C2C3C4C1C1C5C2C2C3C1C2(O)C45)c1nc2ccccc2s1

>  <smiles>  (287) 
[H]OC12C3([H])C4([H])C5([H])C([H])(N([H])C(=O)c6nc7c([H])c([H])c([H])c([H])c7s6)C6([H])C4([H])C4([H])C1([H])C6([H])C3([H])C5([H])C42[H]

$$$$
81:0:1
     RDKit          3D

 44 52  0  0  1  0  0  0  0  0999 V2000
    4.2280    0.1343    3.5970 O   0  0  0  0  0  0  0  0  0  0  0  0
    3.7911    0.0316    2.4511 C   0  0  0  0  0  0  0  0  0  0  0  0
    2.6804    0.6109    1.9666 N   0  0  0  0  0  0  0  0  0  0  0  0
    1.8311    1.6135    2.6410 C   0  0  2  0  0  0  0  0  0  0  0  0
    2.0867    1.6994    4.2703 C   0  0  1  0  0  0  0  0  0  0  0  0
    0.9201    2.4022    3.9914 C   0  0  1  0  0  0  0  0  0  0  0  0
    0.2514    0.7866    3.3680 C   0  0  2  0  0  0  0  0  0  0  0  0
    0.1318    1.5917    2.3448 C   0  0  1  0  0  0  0  0  0  0  0  0
   -0.8887    1.0748    3.4707 C   0  0  1  0  0  0  0  0  0  0  0  0
    0.2745   -0.0138    4.5334 C   0  0  1  0  0  0  0  0  0  0  0  0
    1.3275    0.8315    5.4405 C   0  0  2  0  0  0  0  0  0  0  0  0
    0.2506    1.6948    6.1251 C   0  0  1  0  0  0  0  0  0  0  0  0
    0.0291    2.7824    5.1203 C   0  0  2  0  0  0  0  0  0  0  0  0
   -1.2777    2.1859    4.6255 C   0  0  2  0  0  0  0  0  0  0  0  0
   -1.1479    1.1970    5.7042 C   0  0  2  0  0  0  0  0  0  0  0  0
   -2.1841    0.9553    6.6294 O   0  0  0  0  0  0  0  0  0  0  0  0
   -0.9486    0.1960    4.6198 C   0  0  1  0  0  0  0  0  0  0  0  0
    4.5812   -0.7010    1.4503 C   0  0  0  0  0  0  0  0  0  0  0  0
    5.8996   -0.8801    1.5502 N   0  0  0  0  0  0  0  0  0  0  0  0
    6.3559   -1.5863    0.4596 C   0  0  0  0  0  0  0  0  0  0  0  0
    7.6938   -1.9396    0.1800 C   0  0  0  0  0  0  0  0  0  0  0  0
    8.0123   -2.6789   -0.9706 C   0  0  0  0  0  0  0  0  0  0  0  0
    7.0047   -3.0550   -1.8681 C   0  0  0  0  0  0  0  0  0  0  0  0
    5.6714   -2.7063   -1.6255 C   0  0  0  0  0  0  0  0  0  0  0  0
    5.3576   -1.9766   -0.4776 C   0  0  0  0  0  0  0  0  0  0  0  0
    3.7838   -1.4222    0.0520 S   0  0  0  0  0  0  0  0  0  0  0  0
    2.4235    0.3846    1.0135 H   0  0  0  0  0  0  0  0  0  0  0  0
    2.2462    2.4865    2.1100 H   0  0  0  0  0  0  0  0  0  0  0  0
    2.9016    2.3449    4.5985 H   0  0  0  0  0  0  0  0  0  0  0  0
    0.9770    3.3792    3.4392 H   0  0  0  0  0  0  0  0  0  0  0  0
    0.6040   -0.0699    2.5793 H   0  0  0  0  0  0  0  0  0  0  0  0
   -0.1422    1.1752    1.3695 H   0  0  0  0  0  0  0  0  0  0  0  0
   -1.8142    0.7821    2.8428 H   0  0  0  0  0  0  0  0  0  0  0  0
    0.4508   -1.1093    4.4296 H   0  0  0  0  0  0  0  0  0  0  0  0
    1.9632    0.2258    6.0919 H   0  0  0  0  0  0  0  0  0  0  0  0
    0.4007    2.0345    7.1530 H   0  0  0  0  0  0  0  0  0  0  0  0
    0.0370    3.8098    5.4913 H   0  0  0  0  0  0  0  0  0  0  0  0
   -2.1752    2.8051    4.5548 H   0  0  0  0  0  0  0  0  0  0  0  0
   -2.3636    1.7857    7.0463 H   0  0  0  0  0  0  0  0  0  0  0  0
   -1.4997   -0.7611    4.6314 H   0  0  0  0  0  0  0  0  0  0  0  0
    8.4749   -1.6449    0.8691 H   0  0  0  0  0  0  0  0  0  0  0  0
    9.0310   -2.9687   -1.1720 H   0  0  0  0  0  0  0  0  0  0  0  0
    7.2501   -3.6491   -2.7361 H   0  0  0  0  0  0  0  0  0  0  0  0
    4.8782   -3.0029   -2.2907 H   0  0  0  0  0  0  0  0  0  0  0  0
  1  2  2  0
  2  3  1  0
  2 18  1  0
  3  4  1  0
  3 27  1  0
  4  8  1  0
  4  5  1  0
  4 28  1  6
  5 11  1  0
  5  6  1  0
  5 29  1  6
  6 13  1  0
  6  7  1  0
  6 30  1  6
  7 17  1  0
  7  8  1  0
  7 31  1  6
  8  9  1  0
  8 32  1  6
  9 14  1  0
  9 10  1  0
  9 33  1  6
 10 17  1  0
 10 11  1  0
 10 34  1  6
 11 12  1  0
 11 35  1  1
 12 15  1  0
 12 13  1  0
 12 36  1  1
 13 14  1  0
 13 37  1  1
 14 15  1  0
 14 38  1  6
 15 16  1  1
 15 17  1  0
 16 39  1  0
 17 40  1  6
 18 26  1  0
 18 19  2  0
 19 20  1  0
 20 25  2  0
 20 21  1  0
 21 22  2  0
 21 41  1  0
 22 23  1  0
 22 42  1  0
 23 24  2  0
 23 43  1  0
 24 25  1  0
 24 44  1  0
 25 26  1  0
M  END
>  <i_m_ct_stereo_status>  (288) 
1

>  <s_m_source_file>  (288) 
/var/tmp/pbs.5083858.sched01/tmpczimyggm/115kj__67b7.sdf

>  <i_m_source_file_index>  (288) 
3

>  <i_lp_mmshare_version>  (288) 
48012

>  <i_f3d_flags>  (288) 
2

>  <s_epik_input>  (288) 
W2NIXTFbY0hdW2NIXVtjSF1jKGMxMilzYyhuMilDKD1PKVtOSF1bQ0BIXTNbQ0BIXShbQ0BASF0oW0NIXTRbQ0BASF01NilbQ0BASF03W0NASF04OSlbQ0BIXTVbQ0BIXThbQ0hdM1tDQEhdNFtDQEBIXTlbQ0BdNjdbT0hd

>  <s_epik_cmdline>  (288) 
J2VwaWtfcHl0aG9uJywgJy1waHQnLCAnMi4wJywgJy1waCcsICc3LjAnLCAnLXRuJywgJzgnLCAnLW1hJywgJzIwMCcsICctaW1hZScsICc8aW5maWxlLm1hZT4nLCAnLW9tYWUnLCAnPG91dGZpbGUubWFlPic=

>  <r_lp_tautomer_probability>  (288) 
1

>  <r_epik_Ionization_Penalty>  (288) 
4.45329e-06

>  <r_epik_Ionization_Penalty_Charging>  (288) 
0

>  <r_epik_Ionization_Penalty_Neutral>  (288) 
4.45329e-06

>  <r_epik_State_Penalty>  (288) 
-0

>  <r_epik_Charging_Adjusted_Penalty>  (288) 
0

>  <i_epik_Tot_Q>  (288) 
0

>  <i_epik_Tot_abs_Q>  (288) 
0

>  <s_lp_Force_Field>  (288) 
OPLS3e

>  <r_lp_Energy>  (288) 
763.595

>  <b_lp_Chiralities_Consistent>  (288) 
0

>  <s_lp_Variant>  (288) 
81:0-1

>  <s_i_glide_gridfile>  (288) 
pfpi4k_grid

>  <i_i_glide_lignum>  (288) 
3

>  <i_i_glide_rotatable_bonds>  (288) 
4

>  <r_i_docking_score>  (288) 
-3.3207

>  <r_i_glide_ligand_efficiency>  (288) 
-0.127719

>  <r_i_glide_ligand_efficiency_sa>  (288) 
-0.378367

>  <r_i_glide_ligand_efficiency_ln>  (288) 
-0.779855

>  <r_i_glide_gscore>  (288) 
-3.3207

>  <r_i_glide_lipo>  (288) 
-0.167728

>  <r_i_glide_hbond>  (288) 
-0.16

>  <r_i_glide_metal>  (288) 
-0

>  <r_i_glide_rewards>  (288) 
-0.963284

>  <r_i_glide_evdw>  (288) 
-30.9732

>  <r_i_glide_ecoul>  (288) 
-6.13025

>  <r_i_glide_erotb>  (288) 
0.438514

>  <r_i_glide_esite>  (288) 
0

>  <r_i_glide_emodel>  (288) 
-41.7407

>  <r_i_glide_energy>  (288) 
-37.1035

>  <r_i_glide_einternal>  (288) 
6.67506

>  <r_i_glide_intrahb_reward>  (288) 
-0

>  <i_i_glide_confnum>  (288) 
6

>  <i_i_glide_posenum>  (288) 
15

>  <r_i_glide_eff_state_penalty>  (288) 
0

>  <ligand_id>  (288) 
81

>  <original_smiles>  (288) 
O=C(NC1C2C3C4C1C1C5C2C2C3C1C2(O)C45)c1nc2ccccc2s1

>  <smiles>  (288) 
[H]OC12C3([H])C4([H])C5([H])C([H])(N([H])C(=O)c6nc7c([H])c([H])c([H])c([H])c7s6)C6([H])C4([H])C4([H])C1([H])C6([H])C3([H])C5([H])C42[H]

$$$$
81:0:2
     RDKit          3D

 44 52  0  0  1  0  0  0  0  0999 V2000
    4.8355   -7.4172    1.2640 O   0  0  0  0  0  0  0  0  0  0  0  0
    4.0119   -6.6588    1.7858 C   0  0  0  0  0  0  0  0  0  0  0  0
    4.2032   -5.3458    1.9595 N   0  0  0  0  0  0  0  0  0  0  0  0
    5.2160   -4.5447    1.2549 C   0  0  2  0  0  0  0  0  0  0  0  0
    5.0550   -2.9315    1.5936 C   0  0  1  0  0  0  0  0  0  0  0  0
    5.9267   -3.0685    0.5041 C   0  0  1  0  0  0  0  0  0  0  0  0
    4.4878   -3.8094   -0.3936 C   0  0  2  0  0  0  0  0  0  0  0  0
    5.4049   -4.7393   -0.4530 C   0  0  1  0  0  0  0  0  0  0  0  0
    4.8999   -3.6220   -1.4861 C   0  0  1  0  0  0  0  0  0  0  0  0
    3.5774   -2.7246   -0.4296 C   0  0  1  0  0  0  0  0  0  0  0  0
    4.1915   -1.7957    0.7573 C   0  0  2  0  0  0  0  0  0  0  0  0
    5.1110   -0.9877   -0.1823 C   0  0  1  0  0  0  0  0  0  0  0  0
    6.3057   -1.8737   -0.2932 C   0  0  2  0  0  0  0  0  0  0  0  0
    5.9292   -2.3574   -1.6872 C   0  0  2  0  0  0  0  0  0  0  0  0
    4.8301   -1.3916   -1.6461 C   0  0  2  0  0  0  0  0  0  0  0  0
    4.6120   -0.4713   -2.6915 O   0  0  0  0  0  0  0  0  0  0  0  0
    3.9222   -2.5611   -1.6099 C   0  0  1  0  0  0  0  0  0  0  0  0
    2.6546   -7.1138    2.1955 C   0  0  0  0  0  0  0  0  0  0  0  0
    1.7368   -6.3662    2.8309 N   0  0  0  0  0  0  0  0  0  0  0  0
    0.5813   -7.1063    3.0311 C   0  0  0  0  0  0  0  0  0  0  0  0
   -0.5856   -6.6706    3.6984 C   0  0  0  0  0  0  0  0  0  0  0  0
   -1.7149   -7.4998    3.8166 C   0  0  0  0  0  0  0  0  0  0  0  0
   -1.6994   -8.7923    3.2655 C   0  0  0  0  0  0  0  0  0  0  0  0
   -0.5462   -9.2588    2.6066 C   0  0  0  0  0  0  0  0  0  0  0  0
    0.5811   -8.4238    2.4950 C   0  0  0  0  0  0  0  0  0  0  0  0
    2.1535   -8.7552    1.7644 S   0  0  0  0  0  0  0  0  0  0  0  0
    3.4870   -4.8450    2.4720 H   0  0  0  0  0  0  0  0  0  0  0  0
    6.0949   -4.9832    1.7567 H   0  0  0  0  0  0  0  0  0  0  0  0
    5.5765   -2.5674    2.4785 H   0  0  0  0  0  0  0  0  0  0  0  0
    6.9484   -3.5126    0.6480 H   0  0  0  0  0  0  0  0  0  0  0  0
    3.6803   -4.6827   -0.1603 H   0  0  0  0  0  0  0  0  0  0  0  0
    5.1157   -5.7270   -0.8210 H   0  0  0  0  0  0  0  0  0  0  0  0
    4.7866   -4.2062   -2.4838 H   0  0  0  0  0  0  0  0  0  0  0  0
    2.4820   -2.9317   -0.4020 H   0  0  0  0  0  0  0  0  0  0  0  0
    3.4570   -1.2152    1.3176 H   0  0  0  0  0  0  0  0  0  0  0  0
    5.3364    0.0586    0.0448 H   0  0  0  0  0  0  0  0  0  0  0  0
    7.2840   -1.4110   -0.1574 H   0  0  0  0  0  0  0  0  0  0  0  0
    6.6553   -2.3245   -2.4985 H   0  0  0  0  0  0  0  0  0  0  0  0
    3.6908   -0.2598   -2.6838 H   0  0  0  0  0  0  0  0  0  0  0  0
    3.0423   -2.6115   -2.2759 H   0  0  0  0  0  0  0  0  0  0  0  0
   -0.5815   -5.6897    4.1431 H   0  0  0  0  0  0  0  0  0  0  0  0
   -2.5871   -7.1440    4.3486 H   0  0  0  0  0  0  0  0  0  0  0  0
   -2.5509   -9.4521    3.3881 H   0  0  0  0  0  0  0  0  0  0  0  0
   -0.5143  -10.2549    2.1980 H   0  0  0  0  0  0  0  0  0  0  0  0
  1  2  2  0
  2  3  1  0
  2 18  1  0
  3  4  1  0
  3 27  1  0
  4  8  1  0
  4  5  1  0
  4 28  1  1
  5 11  1  0
  5  6  1  0
  5 29  1  1
  6 13  1  0
  6  7  1  0
  6 30  1  1
  7 17  1  0
  7  8  1  0
  7 31  1  1
  8  9  1  0
  8 32  1  1
  9 14  1  0
  9 10  1  0
  9 33  1  6
 10 17  1  0
 10 11  1  0
 10 34  1  6
 11 12  1  0
 11 35  1  1
 12 15  1  0
 12 13  1  0
 12 36  1  6
 13 14  1  0
 13 37  1  6
 14 15  1  0
 14 38  1  6
 15 16  1  6
 15 17  1  0
 16 39  1  0
 17 40  1  6
 18 26  1  0
 18 19  2  0
 19 20  1  0
 20 25  2  0
 20 21  1  0
 21 22  2  0
 21 41  1  0
 22 23  1  0
 22 42  1  0
 23 24  2  0
 23 43  1  0
 24 25  1  0
 24 44  1  0
 25 26  1  0
M  END
>  <i_m_ct_stereo_status>  (289) 
1

>  <s_m_source_file>  (289) 
/var/tmp/pbs.5083858.sched01/tmpczimyggm/115kj__67b7.sdf

>  <i_m_source_file_index>  (289) 
3

>  <i_lp_mmshare_version>  (289) 
48012

>  <i_f3d_flags>  (289) 
2

>  <s_epik_input>  (289) 
W2NIXTFbY0hdW2NIXVtjSF1jKGMxMilzYyhuMilDKD1PKVtOSF1bQ0BIXTNbQ0BIXShbQ0BASF0oW0NIXTRbQ0BASF01NilbQ0BASF03W0NASF04OSlbQ0BIXTVbQ0BIXThbQ0hdM1tDQEhdNFtDQEBIXTlbQ0BdNjdbT0hd

>  <s_epik_cmdline>  (289) 
J2VwaWtfcHl0aG9uJywgJy1waHQnLCAnMi4wJywgJy1waCcsICc3LjAnLCAnLXRuJywgJzgnLCAnLW1hJywgJzIwMCcsICctaW1hZScsICc8aW5maWxlLm1hZT4nLCAnLW9tYWUnLCAnPG91dGZpbGUubWFlPic=

>  <r_lp_tautomer_probability>  (289) 
1

>  <r_epik_Ionization_Penalty>  (289) 
4.45329e-06

>  <r_epik_Ionization_Penalty_Charging>  (289) 
0

>  <r_epik_Ionization_Penalty_Neutral>  (289) 
4.45329e-06

>  <r_epik_State_Penalty>  (289) 
-0

>  <r_epik_Charging_Adjusted_Penalty>  (289) 
0

>  <i_epik_Tot_Q>  (289) 
0

>  <i_epik_Tot_abs_Q>  (289) 
0

>  <s_lp_Force_Field>  (289) 
OPLS3e

>  <r_lp_Energy>  (289) 
763.595

>  <b_lp_Chiralities_Consistent>  (289) 
0

>  <s_lp_Variant>  (289) 
81:0-1

>  <s_i_glide_gridfile>  (289) 
pfpi4k_grid

>  <i_i_glide_lignum>  (289) 
3

>  <i_i_glide_rotatable_bonds>  (289) 
4

>  <r_i_docking_score>  (289) 
-2.87536

>  <r_i_glide_ligand_efficiency>  (289) 
-0.110591

>  <r_i_glide_ligand_efficiency_sa>  (289) 
-0.327624

>  <r_i_glide_ligand_efficiency_ln>  (289) 
-0.675268

>  <r_i_glide_gscore>  (289) 
-2.87536

>  <r_i_glide_lipo>  (289) 
-0.227987

>  <r_i_glide_hbond>  (289) 
0

>  <r_i_glide_metal>  (289) 
-0

>  <r_i_glide_rewards>  (289) 
-0.995396

>  <r_i_glide_evdw>  (289) 
-32.8579

>  <r_i_glide_ecoul>  (289) 
-2.98393

>  <r_i_glide_erotb>  (289) 
0.438514

>  <r_i_glide_esite>  (289) 
0

>  <r_i_glide_emodel>  (289) 
-41.0234

>  <r_i_glide_energy>  (289) 
-35.8419

>  <r_i_glide_einternal>  (289) 
3.92262

>  <r_i_glide_intrahb_reward>  (289) 
-0

>  <i_i_glide_confnum>  (289) 
1

>  <i_i_glide_posenum>  (289) 
2

>  <r_i_glide_eff_state_penalty>  (289) 
0

>  <ligand_id>  (289) 
81

>  <original_smiles>  (289) 
O=C(NC1C2C3C4C1C1C5C2C2C3C1C2(O)C45)c1nc2ccccc2s1

>  <smiles>  (289) 
[H]OC12C3([H])C4([H])C5([H])C([H])(N([H])C(=O)c6nc7c([H])c([H])c([H])c([H])c7s6)C6([H])C4([H])C4([H])C1([H])C6([H])C3([H])C5([H])C42[H]

$$$$
82:0:0
     RDKit          3D

 99105  0  0  1  0  0  0  0  0999 V2000
   -0.2835    5.9167    8.3339 C   0  0  0  0  0  0  0  0  0  0  0  0
   -0.5282    4.4137    8.4378 C   0  0  2  0  0  0  0  0  0  0  0  0
   -0.4825    3.7868    7.1596 O   0  0  0  0  0  0  0  0  0  0  0  0
   -0.6475    2.3841    7.1590 C   0  0  2  0  0  0  0  0  0  0  0  0
   -1.8895    2.0360    7.7319 O   0  0  0  0  0  0  0  0  0  0  0  0
   -2.1423    2.5484    9.0398 C   0  0  0  0  0  0  0  0  0  0  0  0
   -1.8630    4.0632    9.1268 C   0  0  0  0  0  0  0  0  0  0  0  0
   -1.7840    4.4831   10.5988 C   0  0  0  0  0  0  0  0  0  0  0  0
   -3.0279    4.7805    8.4567 C   0  0  0  0  0  0  0  0  0  0  0  0
    0.5753    1.6226    7.9291 C   0  0  0  0  0  0  0  0  0  0  0  0
    1.8869    2.4085    7.6958 C   0  0  0  0  0  0  0  0  0  0  0  0
    0.4572    1.5046    9.4833 C   0  0  0  0  0  0  0  0  0  0  0  0
    0.7280    0.1610    7.4372 C   0  0  0  0  0  0  0  0  0  0  0  0
    0.9342   -0.9329    8.1850 C   0  0  0  0  0  0  0  0  0  0  0  0
    1.0614   -2.1936    7.3850 C   0  0  0  0  0  0  0  0  0  0  0  0
    0.6433   -1.8035    5.9415 C   0  0  1  0  0  0  0  0  0  0  0  0
   -0.5949   -2.4675    5.7260 O   0  0  0  0  0  0  0  0  0  0  0  0
    0.5882   -0.2232    5.9697 C   0  0  2  0  0  0  0  0  0  0  0  0
    1.8624    0.1558    5.1525 C   0  0  0  0  0  0  0  0  0  0  0  0
    2.7232   -1.0861    4.8566 C   0  0  2  0  0  0  0  0  0  0  0  0
    3.6193   -1.2919    5.9476 O   0  0  0  0  0  0  0  0  0  0  0  0
    4.8315   -1.9088    5.5132 C   0  0  0  0  0  0  0  0  0  0  0  0
    4.7726   -1.9491    3.9861 C   0  0  0  0  0  0  0  0  0  0  0  0
    3.7005   -0.9170    3.6418 C   0  0  2  0  0  0  0  0  0  0  0  0
    4.3801    0.4812    3.6181 C   0  0  0  0  0  0  0  0  0  0  0  0
    3.0067   -1.1525    2.2698 C   0  0  1  0  0  0  0  0  0  0  0  0
    4.0161   -1.3527    1.2691 O   0  0  0  0  0  0  0  0  0  0  0  0
    3.6583   -1.1240   -0.0675 C   0  0  2  0  0  0  0  0  0  0  0  0
    3.0601   -2.4189   -0.6869 C   0  0  0  0  0  0  0  0  0  0  0  0
    2.7371   -2.2353   -2.1083 N   0  0  2  0  0  0  0  0  0  0  0  0
    2.1307   -3.4368   -2.6729 C   0  0  0  0  0  0  0  0  0  0  0  0
    3.9331   -1.7984   -2.8492 C   0  0  0  0  0  0  0  0  0  0  0  0
    4.5263   -0.5446   -2.1984 C   0  0  0  0  0  0  0  0  0  0  0  0
    4.8028   -0.7706   -0.8140 O   0  0  0  0  0  0  0  0  0  0  0  0
    2.0229   -2.3335    2.2904 C   0  0  0  0  0  0  0  0  0  0  0  0
    1.0004   -2.2286    3.4242 C   0  0  0  0  0  0  0  0  0  0  0  0
    1.6594   -2.2377    4.8319 C   0  0  2  0  0  0  0  0  0  0  0  0
    2.1751   -3.6901    5.0795 C   0  0  0  0  0  0  0  0  0  0  0  0
   -0.7078    0.4640    5.4166 C   0  0  1  0  0  0  0  0  0  0  0  0
   -1.9134   -0.0808    5.9532 O   0  0  0  0  0  0  0  0  0  0  0  0
   -0.7413    2.0155    5.6185 C   0  0  1  0  0  0  0  0  0  0  0  0
   -2.0010    2.6255    4.9370 C   0  0  0  0  0  0  0  0  0  0  0  0
    0.3010    2.6119    4.8683 O   0  0  0  0  0  0  0  0  0  0  0  0
   -0.3364    6.3780    9.3200 H   0  0  0  0  0  0  0  0  0  0  0  0
   -1.0249    6.3835    7.6929 H   0  0  0  0  0  0  0  0  0  0  0  0
    0.7054    6.1323    7.9362 H   0  0  0  0  0  0  0  0  0  0  0  0
    0.3091    4.0746    9.0282 H   0  0  0  0  0  0  0  0  0  0  0  0
   -3.1471    2.2735    9.3825 H   0  0  0  0  0  0  0  0  0  0  0  0
   -1.6548    2.1105    9.8024 H   0  0  0  0  0  0  0  0  0  0  0  0
   -2.6913    4.1892   11.1252 H   0  0  0  0  0  0  0  0  0  0  0  0
   -1.6922    5.5584   10.6953 H   0  0  0  0  0  0  0  0  0  0  0  0
   -0.9317    4.0326   11.1221 H   0  0  0  0  0  0  0  0  0  0  0  0
   -3.9513    4.4859    8.9417 H   0  0  0  0  0  0  0  0  0  0  0  0
   -3.0642    4.5013    7.4076 H   0  0  0  0  0  0  0  0  0  0  0  0
   -2.9172    5.8559    8.5510 H   0  0  0  0  0  0  0  0  0  0  0  0
    1.9585    3.3310    8.2612 H   0  0  0  0  0  0  0  0  0  0  0  0
    2.0425    2.7079    6.6626 H   0  0  0  0  0  0  0  0  0  0  0  0
    2.7441    1.8177    8.0261 H   0  0  0  0  0  0  0  0  0  0  0  0
    0.2451    2.4360   10.0227 H   0  0  0  0  0  0  0  0  0  0  0  0
    1.3049    1.1262    9.9844 H   0  0  0  0  0  0  0  0  0  0  0  0
   -0.3586    0.7769    9.7419 H   0  0  0  0  0  0  0  0  0  0  0  0
    1.0537   -0.9618    9.2606 H   0  0  0  0  0  0  0  0  0  0  0  0
    2.1038   -2.4828    7.4785 H   0  0  0  0  0  0  0  0  0  0  0  0
    0.4664   -2.9948    7.8188 H   0  0  0  0  0  0  0  0  0  0  0  0
   -0.4349   -3.3976    5.6887 H   0  0  0  0  0  0  0  0  0  0  0  0
    1.5489    0.5652    4.1967 H   0  0  0  0  0  0  0  0  0  0  0  0
    2.4719    0.9258    5.6163 H   0  0  0  0  0  0  0  0  0  0  0  0
    5.6760   -1.3123    5.8544 H   0  0  0  0  0  0  0  0  0  0  0  0
    4.9327   -2.9092    5.9311 H   0  0  0  0  0  0  0  0  0  0  0  0
    5.7407   -1.7401    3.5289 H   0  0  0  0  0  0  0  0  0  0  0  0
    4.4945   -2.9444    3.6470 H   0  0  0  0  0  0  0  0  0  0  0  0
    5.1828    0.5210    2.8833 H   0  0  0  0  0  0  0  0  0  0  0  0
    4.8209    0.7450    4.5783 H   0  0  0  0  0  0  0  0  0  0  0  0
    3.6818    1.2762    3.3583 H   0  0  0  0  0  0  0  0  0  0  0  0
    2.4255   -0.2574    2.0330 H   0  0  0  0  0  0  0  0  0  0  0  0
    2.9493   -0.2930   -0.0925 H   0  0  0  0  0  0  0  0  0  0  0  0
    3.7649   -3.2449   -0.5416 H   0  0  0  0  0  0  0  0  0  0  0  0
    2.1483   -2.6925   -0.2241 H   0  0  0  0  0  0  0  0  0  0  0  0
    2.8488   -4.2457   -2.5891 H   0  0  0  0  0  0  0  0  0  0  0  0
    1.8777   -3.2707   -3.7173 H   0  0  0  0  0  0  0  0  0  0  0  0
    1.2272   -3.7005   -2.1178 H   0  0  0  0  0  0  0  0  0  0  0  0
    4.6625   -2.6073   -2.8278 H   0  0  0  0  0  0  0  0  0  0  0  0
    3.6643   -1.6078   -3.8866 H   0  0  0  0  0  0  0  0  0  0  0  0
    5.4350   -0.2842   -2.7054 H   0  0  0  0  0  0  0  0  0  0  0  0
    3.8608    0.3022   -2.3314 H   0  0  0  0  0  0  0  0  0  0  0  0
    1.4248   -2.3011    1.4150 H   0  0  0  0  0  0  0  0  0  0  0  0
    2.5571   -3.2835    2.2919 H   0  0  0  0  0  0  0  0  0  0  0  0
    0.4338   -1.3138    3.2506 H   0  0  0  0  0  0  0  0  0  0  0  0
    0.2735   -3.0347    3.3122 H   0  0  0  0  0  0  0  0  0  0  0  0
    2.7645   -4.0984    4.2625 H   0  0  0  0  0  0  0  0  0  0  0  0
    1.3431   -4.3799    5.2146 H   0  0  0  0  0  0  0  0  0  0  0  0
    2.8002   -3.7815    5.9608 H   0  0  0  0  0  0  0  0  0  0  0  0
   -0.7653    0.2543    4.3492 H   0  0  0  0  0  0  0  0  0  0  0  0
   -2.6246    0.1842    5.3868 H   0  0  0  0  0  0  0  0  0  0  0  0
   -2.9289    2.3276    5.4207 H   0  0  0  0  0  0  0  0  0  0  0  0
   -2.0734    2.3034    3.8916 H   0  0  0  0  0  0  0  0  0  0  0  0
   -1.9811    3.7156    4.9272 H   0  0  0  0  0  0  0  0  0  0  0  0
    0.1254    2.4929    3.9459 H   0  0  0  0  0  0  0  0  0  0  0  0
    2.0220   -1.5135   -2.1491 H   0  0  0  0  0  0  0  0  0  0  0  0
  1  2  1  0
  1 44  1  0
  1 45  1  0
  1 46  1  0
  2  7  1  0
  2  3  1  0
  2 47  1  1
  4  3  1  6
  4 41  1  0
  4  5  1  0
  4 10  1  0
  5  6  1  0
  6  7  1  0
  6 48  1  0
  6 49  1  0
  7  8  1  0
  7  9  1  0
  8 50  1  0
  8 51  1  0
  8 52  1  0
  9 53  1  0
  9 54  1  0
  9 55  1  0
 10 11  1  0
 10 12  1  0
 10 13  1  0
 11 56  1  0
 11 57  1  0
 11 58  1  0
 12 59  1  0
 12 60  1  0
 12 61  1  0
 13 18  1  0
 13 14  2  0
 14 15  1  0
 14 62  1  0
 15 16  1  0
 15 63  1  0
 15 64  1  0
 16 37  1  0
 16 17  1  6
 16 18  1  0
 17 65  1  0
 18 19  1  6
 18 39  1  0
 19 20  1  0
 19 66  1  0
 19 67  1  0
 20 24  1  0
 20 37  1  0
 20 21  1  1
 21 22  1  0
 22 23  1  0
 22 68  1  0
 22 69  1  0
 23 24  1  0
 23 70  1  0
 23 71  1  0
 24 25  1  6
 24 26  1  0
 25 72  1  0
 25 73  1  0
 25 74  1  0
 26 27  1  0
 26 35  1  0
 26 75  1  6
 27 28  1  0
 28 34  1  0
 28 29  1  0
 28 76  1  1
 29 30  1  0
 29 77  1  0
 29 78  1  0
 30 31  1  0
 30 32  1  0
 30 99  1  1
 31 79  1  0
 31 80  1  0
 31 81  1  0
 32 33  1  0
 32 82  1  0
 32 83  1  0
 33 34  1  0
 33 84  1  0
 33 85  1  0
 35 36  1  0
 35 86  1  0
 35 87  1  0
 36 37  1  0
 36 88  1  0
 36 89  1  0
 37 38  1  1
 38 90  1  0
 38 91  1  0
 38 92  1  0
 39 40  1  0
 39 41  1  0
 39 93  1  6
 40 94  1  0
 41 42  1  0
 41 43  1  6
 42 95  1  0
 42 96  1  0
 42 97  1  0
 43 98  1  0
M  CHG  1  30   1
M  END
>  <i_m_ct_stereo_status>  (290) 
1

>  <s_m_source_file>  (290) 
/var/tmp/pbs.5083858.sched01/tmpczimyggm/115kj__67b7.sdf

>  <i_m_source_file_index>  (290) 
4

>  <i_lp_mmshare_version>  (290) 
48012

>  <i_f3d_flags>  (290) 
0

>  <s_epik_input>  (290) 
TzFbQ0gyXUMoW0NIM10pKFtDSDNdKVtDQEhdKFtDSDNdKU9bQ0BAXTEyQyhbQ0gzXSkoW0NIM10pQz0zW0NAXTQoW0NAQEhdKFtPSF0pW0NAXTIoW0NIM10pW09IXSlbQ0BdKFtPSF0pKFtDSDJdW0NIXTMpW0NAXTUoW0NIM10pW0NAXTYoW0NIMl00KVtDQEBdKFtDSDNdKShbQ0gyXVtDSDJdTzYpW0NASF0oW0NIMl1bQ0gyXTUpT1tDQEBIXTdbQ0gyXU4oW0NIM10pW0NIMl1bQ0gyXU83

>  <s_epik_cmdline>  (290) 
J2VwaWtfcHl0aG9uJywgJy1waHQnLCAnMi4wJywgJy1waCcsICc3LjAnLCAnLXRuJywgJzgnLCAnLW1hJywgJzIwMCcsICctaW1hZScsICc8aW5maWxlLm1hZT4nLCAnLW9tYWUnLCAnPG91dGZpbGUubWFlPic=

>  <r_epik_Ionization_Penalty>  (290) 
0.299059

>  <r_epik_Ionization_Penalty_Charging>  (290) 
0.299059

>  <r_epik_Ionization_Penalty_Neutral>  (290) 
1.88237e-07

>  <r_epik_State_Penalty>  (290) 
0.292488

>  <r_epik_Charging_Adjusted_Penalty>  (290) 
0.591548

>  <i_epik_Tot_Q>  (290) 
1

>  <i_epik_Tot_abs_Q>  (290) 
1

>  <s_epik_Chemistry_Notes>  (290) 
This compound contains an acetal/aminal-like group ( X-CH(R)-Y where X, Y are N, S, or O) that may be acid/base labile, releasing an aldehyde.

>  <s_lp_Force_Field>  (290) 
OPLS3e

>  <r_lp_Energy>  (290) 
94.5237

>  <b_lp_Chiralities_Consistent>  (290) 
1

>  <s_lp_Variant>  (290) 
82:0-1

>  <s_i_glide_gridfile>  (290) 
pfpi4k_grid

>  <i_i_glide_lignum>  (290) 
4

>  <i_i_glide_rotatable_bonds>  (290) 
5

>  <r_i_docking_score>  (290) 
-2.94522

>  <r_i_glide_ligand_efficiency>  (290) 
-0.0684936

>  <r_i_glide_ligand_efficiency_sa>  (290) 
-0.23996

>  <r_i_glide_ligand_efficiency_ln>  (290) 
-0.618589

>  <r_i_glide_gscore>  (290) 
-2.94522

>  <r_i_glide_lipo>  (290) 
-0.460345

>  <r_i_glide_hbond>  (290) 
-0.122302

>  <r_i_glide_metal>  (290) 
-0

>  <r_i_glide_rewards>  (290) 
0

>  <r_i_glide_evdw>  (290) 
-21.9563

>  <r_i_glide_ecoul>  (290) 
-11.7796

>  <r_i_glide_erotb>  (290) 
0.114246

>  <r_i_glide_esite>  (290) 
-0.136732

>  <r_i_glide_emodel>  (290) 
-36.4074

>  <r_i_glide_energy>  (290) 
-33.7358

>  <r_i_glide_einternal>  (290) 
3.28159

>  <r_i_glide_intrahb_reward>  (290) 
-0

>  <i_i_glide_confnum>  (290) 
5

>  <i_i_glide_posenum>  (290) 
8

>  <r_i_glide_eff_state_penalty>  (290) 
0

>  <ligand_id>  (290) 
82

>  <original_smiles>  (290) 
CC1OC2(OCC1(C)C)C(C)(C)C1=CCC3(O)C1(CC14OCCC1(C)C(OC1CN(C)CCO1)CCC34C)C(O)C2(C)O

>  <smiles>  (290) 
[H]OC1([H])C(O[H])(C([H])([H])[H])C2(OC([H])([H])C(C([H])([H])[H])(C([H])([H])[H])C([H])(C([H])([H])[H])O2)C(C([H])([H])[H])(C([H])([H])[H])C2=C([H])C([H])([H])C3(O[H])C21C([H])([H])C12OC([H])([H])C([H])([H])C1(C([H])([H])[H])C([H])(OC1([H])OC([H])([H])C([H])([H])[N+]([H])(C([H])([H])[H])C1([H])[H])C([H])([H])C([H])([H])C32C([H])([H])[H]

$$$$
82:0:1
     RDKit          3D

 99105  0  0  1  0  0  0  0  0999 V2000
    0.1200    5.7591    8.1868 C   0  0  0  0  0  0  0  0  0  0  0  0
   -0.1483    4.2572    8.2619 C   0  0  2  0  0  0  0  0  0  0  0  0
   -0.1673    3.6644    6.9664 O   0  0  0  0  0  0  0  0  0  0  0  0
   -0.3628    2.2655    6.9410 C   0  0  2  0  0  0  0  0  0  0  0  0
   -1.5842    1.9262    7.5631 O   0  0  0  0  0  0  0  0  0  0  0  0
   -1.7746    2.4056    8.8873 C   0  0  0  0  0  0  0  0  0  0  0  0
   -1.4605    3.9095    9.0000 C   0  0  0  0  0  0  0  0  0  0  0  0
   -1.3086    4.2914   10.4793 C   0  0  0  0  0  0  0  0  0  0  0  0
   -2.6439    4.6681    8.3980 C   0  0  0  0  0  0  0  0  0  0  0  0
    0.8809    1.4614    7.6341 C   0  0  0  0  0  0  0  0  0  0  0  0
    2.1943    2.2307    7.3639 C   0  0  0  0  0  0  0  0  0  0  0  0
    0.8261    1.3046    9.1901 C   0  0  0  0  0  0  0  0  0  0  0  0
    0.9825    0.0112    7.0983 C   0  0  0  0  0  0  0  0  0  0  0  0
    1.2007   -1.1041    7.8064 C   0  0  0  0  0  0  0  0  0  0  0  0
    1.2677   -2.3466    6.9688 C   0  0  0  0  0  0  0  0  0  0  0  0
    0.7967   -1.9100    5.5529 C   0  0  1  0  0  0  0  0  0  0  0  0
   -0.4563   -2.5513    5.3757 O   0  0  0  0  0  0  0  0  0  0  0  0
    0.7706   -0.3286    5.6294 C   0  0  2  0  0  0  0  0  0  0  0  0
    2.0153    0.0482    4.7651 C   0  0  0  0  0  0  0  0  0  0  0  0
    2.8378   -1.2019    4.3993 C   0  0  2  0  0  0  0  0  0  0  0  0
    3.7755   -1.4521    5.4446 O   0  0  0  0  0  0  0  0  0  0  0  0
    4.9546   -2.0790    4.9420 C   0  0  0  0  0  0  0  0  0  0  0  0
    4.8318   -2.0777    3.4187 C   0  0  0  0  0  0  0  0  0  0  0  0
    3.7633   -1.0200    3.1482 C   0  0  2  0  0  0  0  0  0  0  0  0
    4.4665    0.3645    3.1336 C   0  0  0  0  0  0  0  0  0  0  0  0
    3.0107   -1.2035    1.7988 C   0  0  1  0  0  0  0  0  0  0  0  0
    3.9781   -1.3935    0.7593 O   0  0  0  0  0  0  0  0  0  0  0  0
    3.5460   -1.1920   -0.5575 C   0  0  2  0  0  0  0  0  0  0  0  0
    3.2528   -2.5474   -1.2351 C   0  0  0  0  0  0  0  0  0  0  0  0
    2.8678   -2.3621   -2.6477 N   0  0  2  0  0  0  0  0  0  0  0  0
    2.5947   -3.6405   -3.3003 C   0  0  0  0  0  0  0  0  0  0  0  0
    3.9047   -1.6041   -3.3709 C   0  0  0  0  0  0  0  0  0  0  0  0
    4.1852   -0.2845   -2.6467 C   0  0  0  0  0  0  0  0  0  0  0  0
    4.5515   -0.5562   -1.2957 O   0  0  0  0  0  0  0  0  0  0  0  0
    2.0032   -2.3647    1.8057 C   0  0  0  0  0  0  0  0  0  0  0  0
    1.0376   -2.2700    2.9980 C   0  0  0  0  0  0  0  0  0  0  0  0
    1.7530   -2.3317    4.3825 C   0  0  2  0  0  0  0  0  0  0  0  0
    2.2519   -3.7985    4.5778 C   0  0  0  0  0  0  0  0  0  0  0  0
   -0.5344    0.3943    5.1512 C   0  0  1  0  0  0  0  0  0  0  0  0
   -1.7266   -0.1505    5.7194 O   0  0  0  0  0  0  0  0  0  0  0  0
   -0.5295    1.9404    5.3962 C   0  0  1  0  0  0  0  0  0  0  0  0
   -1.8056    2.5889    4.7877 C   0  0  0  0  0  0  0  0  0  0  0  0
    0.4833    2.5451    4.6153 O   0  0  0  0  0  0  0  0  0  0  0  0
    0.1189    6.1945    9.1866 H   0  0  0  0  0  0  0  0  0  0  0  0
   -0.6407    6.2569    7.5921 H   0  0  0  0  0  0  0  0  0  0  0  0
    1.0943    5.9670    7.7525 H   0  0  0  0  0  0  0  0  0  0  0  0
    0.7044    3.8896    8.8082 H   0  0  0  0  0  0  0  0  0  0  0  0
   -2.7677    2.1463    9.2624 H   0  0  0  0  0  0  0  0  0  0  0  0
   -1.2584    1.9377    9.6185 H   0  0  0  0  0  0  0  0  0  0  0  0
   -2.1967    3.9993   11.0384 H   0  0  0  0  0  0  0  0  0  0  0  0
   -1.1918    5.3621   10.6013 H   0  0  0  0  0  0  0  0  0  0  0  0
   -0.4428    3.8122   10.9516 H   0  0  0  0  0  0  0  0  0  0  0  0
   -3.5478    4.3777    8.9214 H   0  0  0  0  0  0  0  0  0  0  0  0
   -2.7429    4.4200    7.3442 H   0  0  0  0  0  0  0  0  0  0  0  0
   -2.5060    5.7397    8.5187 H   0  0  0  0  0  0  0  0  0  0  0  0
    2.3073    3.1356    7.9500 H   0  0  0  0  0  0  0  0  0  0  0  0
    2.3100    2.5537    6.3328 H   0  0  0  0  0  0  0  0  0  0  0  0
    3.0537    1.6152    7.6398 H   0  0  0  0  0  0  0  0  0  0  0  0
    0.6575    2.2239    9.7619 H   0  0  0  0  0  0  0  0  0  0  0  0
    1.6916    0.8966    9.6402 H   0  0  0  0  0  0  0  0  0  0  0  0
    0.0115    0.5824    9.4648 H   0  0  0  0  0  0  0  0  0  0  0  0
    1.3664   -1.1660    8.8750 H   0  0  0  0  0  0  0  0  0  0  0  0
    2.3070   -2.6563    7.0103 H   0  0  0  0  0  0  0  0  0  0  0  0
    0.6762   -3.1478    7.4069 H   0  0  0  0  0  0  0  0  0  0  0  0
   -0.7624   -2.3715    4.5006 H   0  0  0  0  0  0  0  0  0  0  0  0
    1.6673    0.4900    3.8362 H   0  0  0  0  0  0  0  0  0  0  0  0
    2.6586    0.7938    5.2225 H   0  0  0  0  0  0  0  0  0  0  0  0
    5.8184   -1.5032    5.2644 H   0  0  0  0  0  0  0  0  0  0  0  0
    5.0588   -3.0917    5.3292 H   0  0  0  0  0  0  0  0  0  0  0  0
    5.7830   -1.8720    2.9255 H   0  0  0  0  0  0  0  0  0  0  0  0
    4.5202   -3.0575    3.0657 H   0  0  0  0  0  0  0  0  0  0  0  0
    5.2361    0.4065    2.3637 H   0  0  0  0  0  0  0  0  0  0  0  0
    4.9558    0.5981    4.0782 H   0  0  0  0  0  0  0  0  0  0  0  0
    3.7739    1.1796    2.9249 H   0  0  0  0  0  0  0  0  0  0  0  0
    2.4378   -0.2916    1.6146 H   0  0  0  0  0  0  0  0  0  0  0  0
    2.6477   -0.5805   -0.5320 H   0  0  0  0  0  0  0  0  0  0  0  0
    4.1377   -3.1736   -1.1626 H   0  0  0  0  0  0  0  0  0  0  0  0
    2.4520   -3.0555   -0.7163 H   0  0  0  0  0  0  0  0  0  0  0  0
    3.4979   -4.2539   -3.2956 H   0  0  0  0  0  0  0  0  0  0  0  0
    2.2756   -3.4818   -4.3269 H   0  0  0  0  0  0  0  0  0  0  0  0
    1.8115   -4.1603   -2.7547 H   0  0  0  0  0  0  0  0  0  0  0  0
    4.8193   -2.1964   -3.4139 H   0  0  0  0  0  0  0  0  0  0  0  0
    3.5846   -1.4207   -4.3960 H   0  0  0  0  0  0  0  0  0  0  0  0
    5.0129    0.2369   -3.1030 H   0  0  0  0  0  0  0  0  0  0  0  0
    3.3299    0.3799   -2.7266 H   0  0  0  0  0  0  0  0  0  0  0  0
    1.4137   -2.3152    0.9123 H   0  0  0  0  0  0  0  0  0  0  0  0
    2.5260   -3.3223    1.7909 H   0  0  0  0  0  0  0  0  0  0  0  0
    0.4785   -1.3410    2.8861 H   0  0  0  0  0  0  0  0  0  0  0  0
    0.2925   -3.0612    2.9168 H   0  0  0  0  0  0  0  0  0  0  0  0
    2.7975   -4.1968    3.7266 H   0  0  0  0  0  0  0  0  0  0  0  0
    1.4126   -4.4759    4.7344 H   0  0  0  0  0  0  0  0  0  0  0  0
    2.9127   -3.9256    5.4301 H   0  0  0  0  0  0  0  0  0  0  0  0
   -0.6412    0.2191    4.0825 H   0  0  0  0  0  0  0  0  0  0  0  0
   -2.4601    0.1628    5.2086 H   0  0  0  0  0  0  0  0  0  0  0  0
   -2.7167    2.2897    5.3015 H   0  0  0  0  0  0  0  0  0  0  0  0
   -1.9278    2.2972    3.7377 H   0  0  0  0  0  0  0  0  0  0  0  0
   -1.7697    3.6794    4.8041 H   0  0  0  0  0  0  0  0  0  0  0  0
    0.3700    3.4839    4.6622 H   0  0  0  0  0  0  0  0  0  0  0  0
    2.0031   -1.8352   -2.6644 H   0  0  0  0  0  0  0  0  0  0  0  0
  1  2  1  0
  1 44  1  0
  1 45  1  0
  1 46  1  0
  2  7  1  0
  2  3  1  0
  2 47  1  1
  4  3  1  6
  4 41  1  0
  4  5  1  0
  4 10  1  0
  5  6  1  0
  6  7  1  0
  6 48  1  0
  6 49  1  0
  7  8  1  0
  7  9  1  0
  8 50  1  0
  8 51  1  0
  8 52  1  0
  9 53  1  0
  9 54  1  0
  9 55  1  0
 10 11  1  0
 10 12  1  0
 10 13  1  0
 11 56  1  0
 11 57  1  0
 11 58  1  0
 12 59  1  0
 12 60  1  0
 12 61  1  0
 13 18  1  0
 13 14  2  0
 14 15  1  0
 14 62  1  0
 15 16  1  0
 15 63  1  0
 15 64  1  0
 16 37  1  0
 16 17  1  6
 16 18  1  0
 17 65  1  0
 18 19  1  6
 18 39  1  0
 19 20  1  0
 19 66  1  0
 19 67  1  0
 20 24  1  0
 20 37  1  0
 20 21  1  1
 21 22  1  0
 22 23  1  0
 22 68  1  0
 22 69  1  0
 23 24  1  0
 23 70  1  0
 23 71  1  0
 24 25  1  6
 24 26  1  0
 25 72  1  0
 25 73  1  0
 25 74  1  0
 26 27  1  0
 26 35  1  0
 26 75  1  6
 27 28  1  0
 28 34  1  0
 28 29  1  0
 28 76  1  1
 29 30  1  0
 29 77  1  0
 29 78  1  0
 30 31  1  0
 30 32  1  0
 30 99  1  1
 31 79  1  0
 31 80  1  0
 31 81  1  0
 32 33  1  0
 32 82  1  0
 32 83  1  0
 33 34  1  0
 33 84  1  0
 33 85  1  0
 35 36  1  0
 35 86  1  0
 35 87  1  0
 36 37  1  0
 36 88  1  0
 36 89  1  0
 37 38  1  1
 38 90  1  0
 38 91  1  0
 38 92  1  0
 39 40  1  0
 39 41  1  0
 39 93  1  6
 40 94  1  0
 41 42  1  0
 41 43  1  6
 42 95  1  0
 42 96  1  0
 42 97  1  0
 43 98  1  0
M  CHG  1  30   1
M  END
>  <i_m_ct_stereo_status>  (291) 
1

>  <s_m_source_file>  (291) 
/var/tmp/pbs.5083858.sched01/tmpczimyggm/115kj__67b7.sdf

>  <i_m_source_file_index>  (291) 
4

>  <i_lp_mmshare_version>  (291) 
48012

>  <i_f3d_flags>  (291) 
0

>  <s_epik_input>  (291) 
TzFbQ0gyXUMoW0NIM10pKFtDSDNdKVtDQEhdKFtDSDNdKU9bQ0BAXTEyQyhbQ0gzXSkoW0NIM10pQz0zW0NAXTQoW0NAQEhdKFtPSF0pW0NAXTIoW0NIM10pW09IXSlbQ0BdKFtPSF0pKFtDSDJdW0NIXTMpW0NAXTUoW0NIM10pW0NAXTYoW0NIMl00KVtDQEBdKFtDSDNdKShbQ0gyXVtDSDJdTzYpW0NASF0oW0NIMl1bQ0gyXTUpT1tDQEBIXTdbQ0gyXU4oW0NIM10pW0NIMl1bQ0gyXU83

>  <s_epik_cmdline>  (291) 
J2VwaWtfcHl0aG9uJywgJy1waHQnLCAnMi4wJywgJy1waCcsICc3LjAnLCAnLXRuJywgJzgnLCAnLW1hJywgJzIwMCcsICctaW1hZScsICc8aW5maWxlLm1hZT4nLCAnLW9tYWUnLCAnPG91dGZpbGUubWFlPic=

>  <r_epik_Ionization_Penalty>  (291) 
0.299059

>  <r_epik_Ionization_Penalty_Charging>  (291) 
0.299059

>  <r_epik_Ionization_Penalty_Neutral>  (291) 
1.88237e-07

>  <r_epik_State_Penalty>  (291) 
0.292488

>  <r_epik_Charging_Adjusted_Penalty>  (291) 
0.591548

>  <i_epik_Tot_Q>  (291) 
1

>  <i_epik_Tot_abs_Q>  (291) 
1

>  <s_epik_Chemistry_Notes>  (291) 
This compound contains an acetal/aminal-like group ( X-CH(R)-Y where X, Y are N, S, or O) that may be acid/base labile, releasing an aldehyde.

>  <s_lp_Force_Field>  (291) 
OPLS3e

>  <r_lp_Energy>  (291) 
94.5237

>  <b_lp_Chiralities_Consistent>  (291) 
1

>  <s_lp_Variant>  (291) 
82:0-1

>  <s_i_glide_gridfile>  (291) 
pfpi4k_grid

>  <i_i_glide_lignum>  (291) 
4

>  <i_i_glide_rotatable_bonds>  (291) 
5

>  <r_i_docking_score>  (291) 
-2.87381

>  <r_i_glide_ligand_efficiency>  (291) 
-0.0668329

>  <r_i_glide_ligand_efficiency_sa>  (291) 
-0.234142

>  <r_i_glide_ligand_efficiency_ln>  (291) 
-0.60359

>  <r_i_glide_gscore>  (291) 
-2.87381

>  <r_i_glide_lipo>  (291) 
-0.624646

>  <r_i_glide_hbond>  (291) 
-0.0201803

>  <r_i_glide_metal>  (291) 
-0

>  <r_i_glide_rewards>  (291) 
0

>  <r_i_glide_evdw>  (291) 
-20.061

>  <r_i_glide_ecoul>  (291) 
-10.7198

>  <r_i_glide_erotb>  (291) 
0.114246

>  <r_i_glide_esite>  (291) 
-0.140828

>  <r_i_glide_emodel>  (291) 
-32.9785

>  <r_i_glide_energy>  (291) 
-30.7808

>  <r_i_glide_einternal>  (291) 
4.03283

>  <r_i_glide_intrahb_reward>  (291) 
-0

>  <i_i_glide_confnum>  (291) 
5

>  <i_i_glide_posenum>  (291) 
29

>  <r_i_glide_eff_state_penalty>  (291) 
0

>  <ligand_id>  (291) 
82

>  <original_smiles>  (291) 
CC1OC2(OCC1(C)C)C(C)(C)C1=CCC3(O)C1(CC14OCCC1(C)C(OC1CN(C)CCO1)CCC34C)C(O)C2(C)O

>  <smiles>  (291) 
[H]OC1([H])C(O[H])(C([H])([H])[H])C2(OC([H])([H])C(C([H])([H])[H])(C([H])([H])[H])C([H])(C([H])([H])[H])O2)C(C([H])([H])[H])(C([H])([H])[H])C2=C([H])C([H])([H])C3(O[H])C21C([H])([H])C12OC([H])([H])C([H])([H])C1(C([H])([H])[H])C([H])(OC1([H])OC([H])([H])C([H])([H])[N+]([H])(C([H])([H])[H])C1([H])[H])C([H])([H])C([H])([H])C32C([H])([H])[H]

$$$$
82:0:2
     RDKit          3D

 99105  0  0  1  0  0  0  0  0999 V2000
   -0.4710    5.9470    9.0953 C   0  0  0  0  0  0  0  0  0  0  0  0
   -0.7540    4.4480    9.0741 C   0  0  2  0  0  0  0  0  0  0  0  0
   -0.6159    3.9065    7.7690 O   0  0  0  0  0  0  0  0  0  0  0  0
   -0.8213    2.5199    7.6602 C   0  0  2  0  0  0  0  0  0  0  0  0
   -2.1074    2.1720    8.1004 O   0  0  0  0  0  0  0  0  0  0  0  0
   -2.4825    2.6240    9.3734 C   0  0  0  0  0  0  0  0  0  0  0  0
   -2.1529    4.0892    9.6188 C   0  0  0  0  0  0  0  0  0  0  0  0
   -2.2015    4.4227   11.1144 C   0  0  0  0  0  0  0  0  0  0  0  0
   -3.2360    4.8830    8.8881 C   0  0  0  0  0  0  0  0  0  0  0  0
    0.3274    1.6573    8.4808 C   0  0  0  0  0  0  0  0  0  0  0  0
    1.6572    2.4313    8.4250 C   0  0  0  0  0  0  0  0  0  0  0  0
    0.0281    1.4696   10.0164 C   0  0  0  0  0  0  0  0  0  0  0  0
    0.4771    0.2409    7.9181 C   0  0  0  0  0  0  0  0  0  0  0  0
    0.5927   -0.9060    8.6114 C   0  0  0  0  0  0  0  0  0  0  0  0
    0.7601   -2.1180    7.7470 C   0  0  0  0  0  0  0  0  0  0  0  0
    0.4839   -1.6291    6.3018 C   0  0  1  0  0  0  0  0  0  0  0  0
   -0.7463   -2.2461    5.9292 O   0  0  0  0  0  0  0  0  0  0  0  0
    0.4604   -0.0453    6.4269 C   0  0  2  0  0  0  0  0  0  0  0  0
    1.8184    0.3415    5.7481 C   0  0  0  0  0  0  0  0  0  0  0  0
    2.6726   -0.9048    5.4585 C   0  0  2  0  0  0  0  0  0  0  0  0
    3.4600   -1.2037    6.5990 O   0  0  0  0  0  0  0  0  0  0  0  0
    4.6907   -1.8291    6.2362 C   0  0  0  0  0  0  0  0  0  0  0  0
    4.7727   -1.7732    4.7131 C   0  0  0  0  0  0  0  0  0  0  0  0
    3.7581   -0.6869    4.3408 C   0  0  2  0  0  0  0  0  0  0  0  0
    4.4749    0.6902    4.4686 C   0  0  0  0  0  0  0  0  0  0  0  0
    3.1863   -0.8162    2.9025 C   0  0  1  0  0  0  0  0  0  0  0  0
    4.2731   -0.9984    1.9821 O   0  0  0  0  0  0  0  0  0  0  0  0
    3.9756   -1.0643    0.6138 C   0  0  2  0  0  0  0  0  0  0  0  0
    3.3764   -2.4391    0.2397 C   0  0  0  0  0  0  0  0  0  0  0  0
    3.0400   -2.5633   -1.1569 N   0  0  2  0  0  0  0  0  0  0  0  0
    2.3726   -3.8280   -1.4442 C   0  0  0  0  0  0  0  0  0  0  0  0
    4.2935   -2.3851   -1.9155 C   0  0  0  0  0  0  0  0  0  0  0  0
    4.9541   -1.0486   -1.5522 C   0  0  0  0  0  0  0  0  0  0  0  0
    5.1716   -0.9527   -0.1450 O   0  0  0  0  0  0  0  0  0  0  0  0
    2.1573   -1.9380    2.8214 C   0  0  0  0  0  0  0  0  0  0  0  0
    1.0539   -1.9014    3.8115 C   0  0  0  0  0  0  0  0  0  0  0  0
    1.5867   -2.0210    5.2581 C   0  0  2  0  0  0  0  0  0  0  0  0
    2.0439   -3.5021    5.4548 C   0  0  0  0  0  0  0  0  0  0  0  0
   -0.7567    0.7052    5.8015 C   0  0  1  0  0  0  0  0  0  0  0  0
   -2.0209    0.1615    6.1835 O   0  0  0  0  0  0  0  0  0  0  0  0
   -0.7737    2.2431    6.0959 C   0  0  1  0  0  0  0  0  0  0  0  0
   -1.9531    2.9288    5.3487 C   0  0  0  0  0  0  0  0  0  0  0  0
    0.3456    2.8531    5.4827 O   0  0  0  0  0  0  0  0  0  0  0  0
   -0.6074    6.3472   10.1008 H   0  0  0  0  0  0  0  0  0  0  0  0
   -1.1430    6.4731    8.4235 H   0  0  0  0  0  0  0  0  0  0  0  0
    0.5482    6.1613    8.8029 H   0  0  0  0  0  0  0  0  0  0  0  0
    0.0119    4.0548    9.7061 H   0  0  0  0  0  0  0  0  0  0  0  0
   -3.4801    2.3265    9.6559 H   0  0  0  0  0  0  0  0  0  0  0  0
   -2.0668    2.1096   10.1854 H   0  0  0  0  0  0  0  0  0  0  0  0
   -3.1589    4.1241   11.5356 H   0  0  0  0  0  0  0  0  0  0  0  0
   -2.0949    5.4861   11.2844 H   0  0  0  0  0  0  0  0  0  0  0  0
   -1.4158    3.9161   11.6830 H   0  0  0  0  0  0  0  0  0  0  0  0
   -4.2007    4.5891    9.2751 H   0  0  0  0  0  0  0  0  0  0  0  0
   -3.1997    4.6825    7.8245 H   0  0  0  0  0  0  0  0  0  0  0  0
   -3.0999    5.9452    9.0657 H   0  0  0  0  0  0  0  0  0  0  0  0
    1.7047    3.3107    9.0510 H   0  0  0  0  0  0  0  0  0  0  0  0
    1.9189    2.7870    7.4333 H   0  0  0  0  0  0  0  0  0  0  0  0
    2.4692    1.7948    8.7920 H   0  0  0  0  0  0  0  0  0  0  0  0
   -0.1733    2.3486   10.5917 H   0  0  0  0  0  0  0  0  0  0  0  0
    0.8432    1.0180   10.5746 H   0  0  0  0  0  0  0  0  0  0  0  0
   -0.7799    0.7335   10.1477 H   0  0  0  0  0  0  0  0  0  0  0  0
    0.6131   -1.0090    9.6889 H   0  0  0  0  0  0  0  0  0  0  0  0
    1.7842   -2.4463    7.9067 H   0  0  0  0  0  0  0  0  0  0  0  0
    0.1129   -2.9286    8.0658 H   0  0  0  0  0  0  0  0  0  0  0  0
   -0.5934   -3.1601    5.7918 H   0  0  0  0  0  0  0  0  0  0  0  0
    1.6020    0.8169    4.7994 H   0  0  0  0  0  0  0  0  0  0  0  0
    2.4002    1.0618    6.3120 H   0  0  0  0  0  0  0  0  0  0  0  0
    5.5164   -1.2803    6.6898 H   0  0  0  0  0  0  0  0  0  0  0  0
    4.7296   -2.8596    6.5957 H   0  0  0  0  0  0  0  0  0  0  0  0
    5.7807   -1.5650    4.3569 H   0  0  0  0  0  0  0  0  0  0  0  0
    4.5017   -2.7339    4.2846 H   0  0  0  0  0  0  0  0  0  0  0  0
    5.3425    0.7532    3.8094 H   0  0  0  0  0  0  0  0  0  0  0  0
    4.8310    0.8790    5.4795 H   0  0  0  0  0  0  0  0  0  0  0  0
    3.8193    1.5179    4.1986 H   0  0  0  0  0  0  0  0  0  0  0  0
    2.6565    0.1104    2.6617 H   0  0  0  0  0  0  0  0  0  0  0  0
    3.3260   -0.2241    0.3615 H   0  0  0  0  0  0  0  0  0  0  0  0
    3.9692   -3.2412    0.6437 H   0  0  0  0  0  0  0  0  0  0  0  0
    2.3989   -2.6242    0.6180 H   0  0  0  0  0  0  0  0  0  0  0  0
    3.0296   -4.6575   -1.1234 H   0  0  0  0  0  0  0  0  0  0  0  0
    2.1643   -3.8904   -2.5018 H   0  0  0  0  0  0  0  0  0  0  0  0
    1.4376   -3.8973   -0.8879 H   0  0  0  0  0  0  0  0  0  0  0  0
    4.9549   -3.2173   -1.6684 H   0  0  0  0  0  0  0  0  0  0  0  0
    4.0663   -2.4416   -2.9856 H   0  0  0  0  0  0  0  0  0  0  0  0
    5.9065   -0.9896   -2.0704 H   0  0  0  0  0  0  0  0  0  0  0  0
    4.3481   -0.2122   -1.8959 H   0  0  0  0  0  0  0  0  0  0  0  0
    1.5368   -1.7410    1.9394 H   0  0  0  0  0  0  0  0  0  0  0  0
    2.6557   -2.9146    2.7522 H   0  0  0  0  0  0  0  0  0  0  0  0
    0.5255   -0.9602    3.6457 H   0  0  0  0  0  0  0  0  0  0  0  0
    0.3227   -2.6814    3.5733 H   0  0  0  0  0  0  0  0  0  0  0  0
    2.6958   -3.8747    4.6663 H   0  0  0  0  0  0  0  0  0  0  0  0
    1.1875   -4.1742    5.4676 H   0  0  0  0  0  0  0  0  0  0  0  0
    2.5853   -3.6682    6.3787 H   0  0  0  0  0  0  0  0  0  0  0  0
   -0.7230    0.5671    4.7240 H   0  0  0  0  0  0  0  0  0  0  0  0
   -2.6748    0.5115    5.6048 H   0  0  0  0  0  0  0  0  0  0  0  0
   -2.9287    2.6228    5.7201 H   0  0  0  0  0  0  0  0  0  0  0  0
   -1.9339    2.6771    4.2800 H   0  0  0  0  0  0  0  0  0  0  0  0
   -1.9053    4.0167    5.4097 H   0  0  0  0  0  0  0  0  0  0  0  0
    0.3038    2.7096    4.5551 H   0  0  0  0  0  0  0  0  0  0  0  0
    2.3739   -1.8292   -1.4063 H   0  0  0  0  0  0  0  0  0  0  0  0
  1  2  1  0
  1 44  1  0
  1 45  1  0
  1 46  1  0
  2  7  1  0
  2  3  1  0
  2 47  1  1
  4  3  1  6
  4 41  1  0
  4  5  1  0
  4 10  1  0
  5  6  1  0
  6  7  1  0
  6 48  1  0
  6 49  1  0
  7  8  1  0
  7  9  1  0
  8 50  1  0
  8 51  1  0
  8 52  1  0
  9 53  1  0
  9 54  1  0
  9 55  1  0
 10 11  1  0
 10 12  1  0
 10 13  1  0
 11 56  1  0
 11 57  1  0
 11 58  1  0
 12 59  1  0
 12 60  1  0
 12 61  1  0
 13 18  1  0
 13 14  2  0
 14 15  1  0
 14 62  1  0
 15 16  1  0
 15 63  1  0
 15 64  1  0
 16 37  1  0
 16 17  1  6
 16 18  1  0
 17 65  1  0
 18 19  1  6
 18 39  1  0
 19 20  1  0
 19 66  1  0
 19 67  1  0
 20 24  1  0
 20 37  1  0
 20 21  1  1
 21 22  1  0
 22 23  1  0
 22 68  1  0
 22 69  1  0
 23 24  1  0
 23 70  1  0
 23 71  1  0
 24 25  1  6
 24 26  1  0
 25 72  1  0
 25 73  1  0
 25 74  1  0
 26 27  1  0
 26 35  1  0
 26 75  1  6
 27 28  1  0
 28 34  1  0
 28 29  1  0
 28 76  1  6
 29 30  1  0
 29 77  1  0
 29 78  1  0
 30 31  1  0
 30 32  1  0
 30 99  1  6
 31 79  1  0
 31 80  1  0
 31 81  1  0
 32 33  1  0
 32 82  1  0
 32 83  1  0
 33 34  1  0
 33 84  1  0
 33 85  1  0
 35 36  1  0
 35 86  1  0
 35 87  1  0
 36 37  1  0
 36 88  1  0
 36 89  1  0
 37 38  1  1
 38 90  1  0
 38 91  1  0
 38 92  1  0
 39 40  1  0
 39 41  1  0
 39 93  1  6
 40 94  1  0
 41 42  1  0
 41 43  1  6
 42 95  1  0
 42 96  1  0
 42 97  1  0
 43 98  1  0
M  CHG  1  30   1
M  END
>  <i_m_ct_stereo_status>  (292) 
1

>  <s_m_source_file>  (292) 
/var/tmp/pbs.5083858.sched01/tmpczimyggm/115kj__67b7.sdf

>  <i_m_source_file_index>  (292) 
4

>  <i_lp_mmshare_version>  (292) 
48012

>  <i_f3d_flags>  (292) 
0

>  <s_epik_input>  (292) 
TzFbQ0gyXUMoW0NIM10pKFtDSDNdKVtDQEhdKFtDSDNdKU9bQ0BAXTEyQyhbQ0gzXSkoW0NIM10pQz0zW0NAXTQoW0NAQEhdKFtPSF0pW0NAXTIoW0NIM10pW09IXSlbQ0BdKFtPSF0pKFtDSDJdW0NIXTMpW0NAXTUoW0NIM10pW0NAXTYoW0NIMl00KVtDQEBdKFtDSDNdKShbQ0gyXVtDSDJdTzYpW0NASF0oW0NIMl1bQ0gyXTUpT1tDQEBIXTdbQ0gyXU4oW0NIM10pW0NIMl1bQ0gyXU83

>  <s_epik_cmdline>  (292) 
J2VwaWtfcHl0aG9uJywgJy1waHQnLCAnMi4wJywgJy1waCcsICc3LjAnLCAnLXRuJywgJzgnLCAnLW1hJywgJzIwMCcsICctaW1hZScsICc8aW5maWxlLm1hZT4nLCAnLW9tYWUnLCAnPG91dGZpbGUubWFlPic=

>  <r_epik_Ionization_Penalty>  (292) 
0.299059

>  <r_epik_Ionization_Penalty_Charging>  (292) 
0.299059

>  <r_epik_Ionization_Penalty_Neutral>  (292) 
1.88237e-07

>  <r_epik_State_Penalty>  (292) 
0.292488

>  <r_epik_Charging_Adjusted_Penalty>  (292) 
0.591548

>  <i_epik_Tot_Q>  (292) 
1

>  <i_epik_Tot_abs_Q>  (292) 
1

>  <s_epik_Chemistry_Notes>  (292) 
This compound contains an acetal/aminal-like group ( X-CH(R)-Y where X, Y are N, S, or O) that may be acid/base labile, releasing an aldehyde.

>  <s_lp_Force_Field>  (292) 
OPLS3e

>  <r_lp_Energy>  (292) 
94.5237

>  <b_lp_Chiralities_Consistent>  (292) 
1

>  <s_lp_Variant>  (292) 
82:0-1

>  <s_i_glide_gridfile>  (292) 
pfpi4k_grid

>  <i_i_glide_lignum>  (292) 
4

>  <i_i_glide_rotatable_bonds>  (292) 
5

>  <r_i_docking_score>  (292) 
-2.15226

>  <r_i_glide_ligand_efficiency>  (292) 
-0.0500526

>  <r_i_glide_ligand_efficiency_sa>  (292) 
-0.175354

>  <r_i_glide_ligand_efficiency_ln>  (292) 
-0.452042

>  <r_i_glide_gscore>  (292) 
-2.15226

>  <r_i_glide_lipo>  (292) 
-0.141805

>  <r_i_glide_hbond>  (292) 
-0.169893

>  <r_i_glide_metal>  (292) 
-0

>  <r_i_glide_rewards>  (292) 
0

>  <r_i_glide_evdw>  (292) 
-26.2841

>  <r_i_glide_ecoul>  (292) 
-11.9865

>  <r_i_glide_erotb>  (292) 
0.114246

>  <r_i_glide_esite>  (292) 
-0.071459

>  <r_i_glide_emodel>  (292) 
-37.5697

>  <r_i_glide_energy>  (292) 
-38.2706

>  <r_i_glide_einternal>  (292) 
3.86035

>  <r_i_glide_intrahb_reward>  (292) 
-0

>  <i_i_glide_confnum>  (292) 
5

>  <i_i_glide_posenum>  (292) 
24

>  <r_i_glide_eff_state_penalty>  (292) 
0

>  <ligand_id>  (292) 
82

>  <original_smiles>  (292) 
CC1OC2(OCC1(C)C)C(C)(C)C1=CCC3(O)C1(CC14OCCC1(C)C(OC1CN(C)CCO1)CCC34C)C(O)C2(C)O

>  <smiles>  (292) 
[H]OC1([H])C(O[H])(C([H])([H])[H])C2(OC([H])([H])C(C([H])([H])[H])(C([H])([H])[H])C([H])(C([H])([H])[H])O2)C(C([H])([H])[H])(C([H])([H])[H])C2=C([H])C([H])([H])C3(O[H])C21C([H])([H])C12OC([H])([H])C([H])([H])C1(C([H])([H])[H])C([H])(OC1([H])OC([H])([H])C([H])([H])[N+]([H])(C([H])([H])[H])C1([H])[H])C([H])([H])C([H])([H])C32C([H])([H])[H]

$$$$
83:0:0
     RDKit          3D

 24 26  0  0  1  0  0  0  0  0999 V2000
    7.8834   -3.8652    0.5875 C   0  0  0  0  0  0  0  0  0  0  0  0
    6.5435   -3.9271   -0.0116 N   0  0  0  0  0  0  0  0  0  0  0  0
    5.7672   -5.1141    0.3434 C   0  0  0  0  0  0  0  0  0  0  0  0
    4.5564   -4.6724    1.0824 C   0  0  0  0  0  0  0  0  0  0  0  0
    4.2720   -4.9619    2.3430 N   0  0  0  0  0  0  0  0  0  0  0  0
    3.0511   -4.3532    2.5553 N   0  0  0  0  0  0  0  0  0  0  0  0
    2.6287   -3.7415    1.4861 N   0  0  0  0  0  0  0  0  0  0  0  0
    3.5938   -3.9172    0.5555 N   0  0  0  0  0  0  0  0  0  0  0  0
    3.5602   -3.4790   -0.7952 C   0  0  0  0  0  0  0  0  0  0  0  0
    2.3399   -3.4566   -1.3745 N   0  0  0  0  0  0  0  0  0  0  0  0
    2.2240   -3.0555   -2.6520 C   0  0  0  0  0  0  0  0  0  0  0  0
    3.3172   -2.6374   -3.4282 C   0  0  0  0  0  0  0  0  0  0  0  0
    4.5883   -2.6563   -2.8389 C   0  0  0  0  0  0  0  0  0  0  0  0
    4.7420   -3.0945   -1.5035 C   0  0  0  0  0  0  0  0  0  0  0  0
    6.1161   -2.9900   -0.8904 C   0  0  0  0  0  0  0  0  0  0  0  0
    6.8398   -2.0637   -1.2518 O   0  0  0  0  0  0  0  0  0  0  0  0
    8.4391   -2.9592    0.3416 H   0  0  0  0  0  0  0  0  0  0  0  0
    8.4896   -4.7074    0.2492 H   0  0  0  0  0  0  0  0  0  0  0  0
    7.8181   -3.9013    1.6764 H   0  0  0  0  0  0  0  0  0  0  0  0
    5.4656   -5.6761   -0.5440 H   0  0  0  0  0  0  0  0  0  0  0  0
    6.3359   -5.7927    0.9805 H   0  0  0  0  0  0  0  0  0  0  0  0
    1.2290   -3.0569   -3.0628 H   0  0  0  0  0  0  0  0  0  0  0  0
    3.1612   -2.2833   -4.4359 H   0  0  0  0  0  0  0  0  0  0  0  0
    5.4357   -2.3059   -3.4072 H   0  0  0  0  0  0  0  0  0  0  0  0
  1  2  1  0
  1 17  1  0
  1 18  1  0
  1 19  1  0
  2 15  1  0
  2  3  1  0
  3  4  1  0
  3 20  1  0
  3 21  1  0
  4  8  1  0
  4  5  2  0
  5  6  1  0
  6  7  2  0
  7  8  1  0
  8  9  1  0
  9 14  2  0
  9 10  1  0
 10 11  2  0
 11 12  1  0
 11 22  1  0
 12 13  2  0
 12 23  1  0
 13 14  1  0
 13 24  1  0
 14 15  1  0
 15 16  2  0
M  END
>  <i_m_ct_stereo_status>  (293) 
1

>  <s_m_source_file>  (293) 
/var/tmp/pbs.5083858.sched01/tmpb5pk4yey/120vdy36rhu.sdf

>  <i_m_source_file_index>  (293) 
1

>  <i_lp_mmshare_version>  (293) 
48012

>  <i_f3d_flags>  (293) 
0

>  <s_epik_input>  (293) 
bjFbY0hdW2NIXVtjSF1jKEMoPU8pTihbQ0gzXSlbQ0gyXTIpYzFuKGMyMylubm4z

>  <s_epik_cmdline>  (293) 
J2VwaWtfcHl0aG9uJywgJy1waHQnLCAnMi4wJywgJy1waCcsICc3LjAnLCAnLXRuJywgJzgnLCAnLW1hJywgJzIwMCcsICctaW1hZScsICc8aW5maWxlLm1hZT4nLCAnLW9tYWUnLCAnPG91dGZpbGUubWFlPic=

>  <r_lp_tautomer_probability>  (293) 
1

>  <r_epik_Ionization_Penalty>  (293) 
2.3688e-11

>  <r_epik_Ionization_Penalty_Charging>  (293) 
0

>  <r_epik_Ionization_Penalty_Neutral>  (293) 
2.3688e-11

>  <r_epik_State_Penalty>  (293) 
-0

>  <r_epik_Charging_Adjusted_Penalty>  (293) 
0

>  <i_epik_Tot_Q>  (293) 
0

>  <i_epik_Tot_abs_Q>  (293) 
0

>  <s_lp_Force_Field>  (293) 
OPLS3e

>  <r_lp_Energy>  (293) 
33.8637

>  <b_lp_Chiralities_Consistent>  (293) 
1

>  <s_lp_Variant>  (293) 
83:0-1

>  <s_i_glide_gridfile>  (293) 
pfpi4k_grid

>  <i_i_glide_lignum>  (293) 
1

>  <i_i_glide_rotatable_bonds>  (293) 
0

>  <r_i_docking_score>  (293) 
-4.4487

>  <r_i_glide_ligand_efficiency>  (293) 
-0.278044

>  <r_i_glide_ligand_efficiency_sa>  (293) 
-0.700627

>  <r_i_glide_ligand_efficiency_ln>  (293) 
-1.17922

>  <r_i_glide_gscore>  (293) 
-4.4487

>  <r_i_glide_lipo>  (293) 
-0.700029

>  <r_i_glide_hbond>  (293) 
-0.16

>  <r_i_glide_metal>  (293) 
-0

>  <r_i_glide_rewards>  (293) 
-2.20268

>  <r_i_glide_evdw>  (293) 
-20.5656

>  <r_i_glide_ecoul>  (293) 
-2.29602

>  <r_i_glide_erotb>  (293) 
0

>  <r_i_glide_esite>  (293) 
-0.0133162

>  <r_i_glide_emodel>  (293) 
-29.7835

>  <r_i_glide_energy>  (293) 
-22.8616

>  <r_i_glide_einternal>  (293) 
0

>  <r_i_glide_intrahb_reward>  (293) 
-0

>  <i_i_glide_confnum>  (293) 
1

>  <i_i_glide_posenum>  (293) 
11

>  <r_i_glide_eff_state_penalty>  (293) 
0

>  <ligand_id>  (293) 
83

>  <original_smiles>  (293) 
CN1Cc2nnnn2-c2ncccc2C1=O

>  <smiles>  (293) 
[H]c1nc2c(c([H])c1[H])C(=O)N(C([H])([H])[H])C([H])([H])c1nnnn1-2

$$$$
83:0:1
     RDKit          3D

 24 26  0  0  1  0  0  0  0  0999 V2000
    7.1431   -2.6740    0.8776 C   0  0  0  0  0  0  0  0  0  0  0  0
    6.0584   -2.9566   -0.0677 N   0  0  0  0  0  0  0  0  0  0  0  0
    5.7805   -4.3741   -0.2832 C   0  0  0  0  0  0  0  0  0  0  0  0
    4.4063   -4.6626    0.1883 C   0  0  0  0  0  0  0  0  0  0  0  0
    4.0813   -5.4903    1.1717 N   0  0  0  0  0  0  0  0  0  0  0  0
    2.6997   -5.4656    1.1731 N   0  0  0  0  0  0  0  0  0  0  0  0
    2.2356   -4.6831    0.2411 N   0  0  0  0  0  0  0  0  0  0  0  0
    3.3145   -4.1366   -0.3632 N   0  0  0  0  0  0  0  0  0  0  0  0
    3.3102   -3.2707   -1.4929 C   0  0  0  0  0  0  0  0  0  0  0  0
    2.2926   -3.4383   -2.3698 N   0  0  0  0  0  0  0  0  0  0  0  0
    2.2243   -2.6623   -3.4667 C   0  0  0  0  0  0  0  0  0  0  0  0
    3.1583   -1.6532   -3.7533 C   0  0  0  0  0  0  0  0  0  0  0  0
    4.2123   -1.4599   -2.8468 C   0  0  0  0  0  0  0  0  0  0  0  0
    4.3223   -2.2829   -1.7059 C   0  0  0  0  0  0  0  0  0  0  0  0
    5.4215   -1.9616   -0.7248 C   0  0  0  0  0  0  0  0  0  0  0  0
    5.7670   -0.7870   -0.5993 O   0  0  0  0  0  0  0  0  0  0  0  0
    7.3025   -1.6111    1.0699 H   0  0  0  0  0  0  0  0  0  0  0  0
    8.0895   -3.0746    0.5099 H   0  0  0  0  0  0  0  0  0  0  0  0
    6.9185   -3.1342    1.8407 H   0  0  0  0  0  0  0  0  0  0  0  0
    5.8154   -4.6209   -1.3453 H   0  0  0  0  0  0  0  0  0  0  0  0
    6.4861   -5.0132    0.2511 H   0  0  0  0  0  0  0  0  0  0  0  0
    1.3903   -2.8446   -4.1274 H   0  0  0  0  0  0  0  0  0  0  0  0
    3.0315   -1.0276   -4.6183 H   0  0  0  0  0  0  0  0  0  0  0  0
    4.9137   -0.6572   -3.0223 H   0  0  0  0  0  0  0  0  0  0  0  0
  1  2  1  0
  1 17  1  0
  1 18  1  0
  1 19  1  0
  2 15  1  0
  2  3  1  0
  3  4  1  0
  3 20  1  0
  3 21  1  0
  4  8  1  0
  4  5  2  0
  5  6  1  0
  6  7  2  0
  7  8  1  0
  8  9  1  0
  9 14  2  0
  9 10  1  0
 10 11  2  0
 11 12  1  0
 11 22  1  0
 12 13  2  0
 12 23  1  0
 13 14  1  0
 13 24  1  0
 14 15  1  0
 15 16  2  0
M  END
>  <i_m_ct_stereo_status>  (294) 
1

>  <s_m_source_file>  (294) 
/var/tmp/pbs.5083858.sched01/tmpb5pk4yey/120vdy36rhu.sdf

>  <i_m_source_file_index>  (294) 
1

>  <i_lp_mmshare_version>  (294) 
48012

>  <i_f3d_flags>  (294) 
0

>  <s_epik_input>  (294) 
bjFbY0hdW2NIXVtjSF1jKEMoPU8pTihbQ0gzXSlbQ0gyXTIpYzFuKGMyMylubm4z

>  <s_epik_cmdline>  (294) 
J2VwaWtfcHl0aG9uJywgJy1waHQnLCAnMi4wJywgJy1waCcsICc3LjAnLCAnLXRuJywgJzgnLCAnLW1hJywgJzIwMCcsICctaW1hZScsICc8aW5maWxlLm1hZT4nLCAnLW9tYWUnLCAnPG91dGZpbGUubWFlPic=

>  <r_lp_tautomer_probability>  (294) 
1

>  <r_epik_Ionization_Penalty>  (294) 
2.3688e-11

>  <r_epik_Ionization_Penalty_Charging>  (294) 
0

>  <r_epik_Ionization_Penalty_Neutral>  (294) 
2.3688e-11

>  <r_epik_State_Penalty>  (294) 
-0

>  <r_epik_Charging_Adjusted_Penalty>  (294) 
0

>  <i_epik_Tot_Q>  (294) 
0

>  <i_epik_Tot_abs_Q>  (294) 
0

>  <s_lp_Force_Field>  (294) 
OPLS3e

>  <r_lp_Energy>  (294) 
33.8637

>  <b_lp_Chiralities_Consistent>  (294) 
1

>  <s_lp_Variant>  (294) 
83:0-1

>  <s_i_glide_gridfile>  (294) 
pfpi4k_grid

>  <i_i_glide_lignum>  (294) 
1

>  <i_i_glide_rotatable_bonds>  (294) 
0

>  <r_i_docking_score>  (294) 
-3.84338

>  <r_i_glide_ligand_efficiency>  (294) 
-0.240211

>  <r_i_glide_ligand_efficiency_sa>  (294) 
-0.605294

>  <r_i_glide_ligand_efficiency_ln>  (294) 
-1.01876

>  <r_i_glide_gscore>  (294) 
-3.84338

>  <r_i_glide_lipo>  (294) 
-0.531497

>  <r_i_glide_hbond>  (294) 
-0.0214763

>  <r_i_glide_metal>  (294) 
-0

>  <r_i_glide_rewards>  (294) 
-2.10895

>  <r_i_glide_evdw>  (294) 
-21.3924

>  <r_i_glide_ecoul>  (294) 
0.149196

>  <r_i_glide_erotb>  (294) 
0

>  <r_i_glide_esite>  (294) 
-0.134211

>  <r_i_glide_emodel>  (294) 
-27.1992

>  <r_i_glide_energy>  (294) 
-21.2432

>  <r_i_glide_einternal>  (294) 
0

>  <r_i_glide_intrahb_reward>  (294) 
-0

>  <i_i_glide_confnum>  (294) 
1

>  <i_i_glide_posenum>  (294) 
6

>  <r_i_glide_eff_state_penalty>  (294) 
0

>  <ligand_id>  (294) 
83

>  <original_smiles>  (294) 
CN1Cc2nnnn2-c2ncccc2C1=O

>  <smiles>  (294) 
[H]c1nc2c(c([H])c1[H])C(=O)N(C([H])([H])[H])C([H])([H])c1nnnn1-2

$$$$
83:0:2
     RDKit          3D

 24 26  0  0  1  0  0  0  0  0999 V2000
    1.5803    6.0114    4.1486 C   0  0  0  0  0  0  0  0  0  0  0  0
    1.2708    4.5795    4.0397 N   0  0  0  0  0  0  0  0  0  0  0  0
    0.2082    4.1113    4.9255 C   0  0  0  0  0  0  0  0  0  0  0  0
   -0.9156    3.6277    4.0816 C   0  0  0  0  0  0  0  0  0  0  0  0
   -2.1415    4.1435    4.0554 N   0  0  0  0  0  0  0  0  0  0  0  0
   -2.8149    3.3422    3.1507 N   0  0  0  0  0  0  0  0  0  0  0  0
   -2.0455    2.3963    2.6955 N   0  0  0  0  0  0  0  0  0  0  0  0
   -0.8334    2.5884    3.2549 N   0  0  0  0  0  0  0  0  0  0  0  0
    0.3105    1.7653    3.0986 C   0  0  0  0  0  0  0  0  0  0  0  0
    0.0744    0.4398    2.9398 N   0  0  0  0  0  0  0  0  0  0  0  0
    1.1093   -0.3970    2.7528 C   0  0  0  0  0  0  0  0  0  0  0  0
    2.4479    0.0257    2.7493 C   0  0  0  0  0  0  0  0  0  0  0  0
    2.7017    1.3887    2.9446 C   0  0  0  0  0  0  0  0  0  0  0  0
    1.6366    2.2951    3.1316 C   0  0  0  0  0  0  0  0  0  0  0  0
    1.9835    3.7661    3.2248 C   0  0  0  0  0  0  0  0  0  0  0  0
    2.9556    4.1786    2.5891 O   0  0  0  0  0  0  0  0  0  0  0  0
    2.3484    6.3539    3.4527 H   0  0  0  0  0  0  0  0  0  0  0  0
    1.9347    6.2467    5.1531 H   0  0  0  0  0  0  0  0  0  0  0  0
    0.6946    6.6126    3.9409 H   0  0  0  0  0  0  0  0  0  0  0  0
    0.5626    3.3074    5.5736 H   0  0  0  0  0  0  0  0  0  0  0  0
   -0.1589    4.9106    5.5669 H   0  0  0  0  0  0  0  0  0  0  0  0
    0.8651   -1.4389    2.6080 H   0  0  0  0  0  0  0  0  0  0  0  0
    3.2522   -0.6735    2.5917 H   0  0  0  0  0  0  0  0  0  0  0  0
    3.7283    1.7288    2.9331 H   0  0  0  0  0  0  0  0  0  0  0  0
  1  2  1  0
  1 17  1  0
  1 18  1  0
  1 19  1  0
  2 15  1  0
  2  3  1  0
  3  4  1  0
  3 20  1  0
  3 21  1  0
  4  8  1  0
  4  5  2  0
  5  6  1  0
  6  7  2  0
  7  8  1  0
  8  9  1  0
  9 14  2  0
  9 10  1  0
 10 11  2  0
 11 12  1  0
 11 22  1  0
 12 13  2  0
 12 23  1  0
 13 14  1  0
 13 24  1  0
 14 15  1  0
 15 16  2  0
M  END
>  <i_m_ct_stereo_status>  (295) 
1

>  <s_m_source_file>  (295) 
/var/tmp/pbs.5083858.sched01/tmpb5pk4yey/120vdy36rhu.sdf

>  <i_m_source_file_index>  (295) 
1

>  <i_lp_mmshare_version>  (295) 
48012

>  <i_f3d_flags>  (295) 
0

>  <s_epik_input>  (295) 
bjFbY0hdW2NIXVtjSF1jKEMoPU8pTihbQ0gzXSlbQ0gyXTIpYzFuKGMyMylubm4z

>  <s_epik_cmdline>  (295) 
J2VwaWtfcHl0aG9uJywgJy1waHQnLCAnMi4wJywgJy1waCcsICc3LjAnLCAnLXRuJywgJzgnLCAnLW1hJywgJzIwMCcsICctaW1hZScsICc8aW5maWxlLm1hZT4nLCAnLW9tYWUnLCAnPG91dGZpbGUubWFlPic=

>  <r_lp_tautomer_probability>  (295) 
1

>  <r_epik_Ionization_Penalty>  (295) 
2.3688e-11

>  <r_epik_Ionization_Penalty_Charging>  (295) 
0

>  <r_epik_Ionization_Penalty_Neutral>  (295) 
2.3688e-11

>  <r_epik_State_Penalty>  (295) 
-0

>  <r_epik_Charging_Adjusted_Penalty>  (295) 
0

>  <i_epik_Tot_Q>  (295) 
0

>  <i_epik_Tot_abs_Q>  (295) 
0

>  <s_lp_Force_Field>  (295) 
OPLS3e

>  <r_lp_Energy>  (295) 
33.8637

>  <b_lp_Chiralities_Consistent>  (295) 
1

>  <s_lp_Variant>  (295) 
83:0-1

>  <s_i_glide_gridfile>  (295) 
pfpi4k_grid

>  <i_i_glide_lignum>  (295) 
1

>  <i_i_glide_rotatable_bonds>  (295) 
0

>  <r_i_docking_score>  (295) 
-3.51707

>  <r_i_glide_ligand_efficiency>  (295) 
-0.219817

>  <r_i_glide_ligand_efficiency_sa>  (295) 
-0.553904

>  <r_i_glide_ligand_efficiency_ln>  (295) 
-0.932269

>  <r_i_glide_gscore>  (295) 
-3.51707

>  <r_i_glide_lipo>  (295) 
0

>  <r_i_glide_hbond>  (295) 
0

>  <r_i_glide_metal>  (295) 
-0

>  <r_i_glide_rewards>  (295) 
-1.935

>  <r_i_glide_evdw>  (295) 
-18.8241

>  <r_i_glide_ecoul>  (295) 
-1.41348

>  <r_i_glide_erotb>  (295) 
0

>  <r_i_glide_esite>  (295) 
-0.428837

>  <r_i_glide_emodel>  (295) 
-25.6708

>  <r_i_glide_energy>  (295) 
-20.2376

>  <r_i_glide_einternal>  (295) 
0

>  <r_i_glide_intrahb_reward>  (295) 
-0

>  <i_i_glide_confnum>  (295) 
2

>  <i_i_glide_posenum>  (295) 
9

>  <r_i_glide_eff_state_penalty>  (295) 
0

>  <ligand_id>  (295) 
83

>  <original_smiles>  (295) 
CN1Cc2nnnn2-c2ncccc2C1=O

>  <smiles>  (295) 
[H]c1nc2c(c([H])c1[H])C(=O)N(C([H])([H])[H])C([H])([H])c1nnnn1-2

$$$$
85:0:0
     RDKit          3D

 70 73  0  0  1  0  0  0  0  0999 V2000
    0.6347  -11.0895    4.6044 C   0  0  0  0  0  0  0  0  0  0  0  0
    0.9677   -9.8227    3.7871 C   0  0  2  0  0  0  0  0  0  0  0  0
    2.3078   -9.2541    4.3107 C   0  0  0  0  0  0  0  0  0  0  0  0
    2.3953   -8.1362    4.8095 O   0  0  0  0  0  0  0  0  0  0  0  0
    3.5891  -10.0923    4.2173 C   0  0  0  0  0  0  0  0  0  0  0  0
    4.1899  -10.1912    2.7809 C   0  0  0  0  0  0  0  0  0  0  0  0
    5.3289   -9.1980    2.3806 C   0  0  0  0  0  0  0  0  0  0  0  0
    6.5532   -9.5477    3.2640 C   0  0  0  0  0  0  0  0  0  0  0  0
    5.7060   -9.5633    0.9273 C   0  0  0  0  0  0  0  0  0  0  0  0
    4.8384   -7.7087    2.5418 C   0  0  2  0  0  0  0  0  0  0  0  0
    3.6507   -7.3293    1.6322 C   0  0  0  0  0  0  0  0  0  0  0  0
    3.8057   -5.8633    1.2607 C   0  0  1  0  0  0  0  0  0  0  0  0
    2.5404   -5.2290    1.2759 O   0  0  0  0  0  0  0  0  0  0  0  0
    4.7785   -5.2958    2.3138 C   0  0  2  0  0  0  0  0  0  0  0  0
    5.4524   -3.9233    1.9893 C   0  0  1  0  0  0  0  0  0  0  0  0
    6.5894   -4.0496    0.9548 C   0  0  1  0  0  0  0  0  0  0  0  0
    7.5735   -5.1632    1.2893 C   0  0  0  0  0  0  0  0  0  0  0  0
    6.8325   -6.4778    1.4733 C   0  0  0  0  0  0  0  0  0  0  0  0
    5.7734   -6.4626    2.5903 C   0  0  2  0  0  0  0  0  0  0  0  0
    6.4235   -6.2685    3.9921 C   0  0  0  0  0  0  0  0  0  0  0  0
    5.9442   -4.2702   -0.2907 O   0  0  0  0  0  0  0  0  0  0  0  0
    5.2889   -2.9700   -0.7049 O   0  0  0  0  0  0  0  0  0  0  0  0
    4.3950   -2.5689    0.2489 C   0  0  0  0  0  0  0  0  0  0  0  0
    3.4211   -1.6672    0.1291 N   0  0  0  0  0  0  0  0  0  0  0  0
    2.9324   -1.3837    1.3735 C   0  0  0  0  0  0  0  0  0  0  0  0
    3.5996   -2.1902    2.2731 C   0  0  0  0  0  0  0  0  0  0  0  0
    4.4896   -2.9324    1.5388 N   0  0  0  0  0  0  0  0  0  0  0  0
   -0.2178   -8.7867    3.7298 C   0  0  0  0  0  0  0  0  0  0  0  0
   -0.6226   -8.1751    5.0856 C   0  0  0  0  0  0  0  0  0  0  0  0
   -0.0097   -7.6596    2.6958 C   0  0  0  0  0  0  0  0  0  0  0  0
   -1.3691   -9.4555    3.2721 O   0  0  0  0  0  0  0  0  0  0  0  0
    1.4070  -11.8501    4.6059 H   0  0  0  0  0  0  0  0  0  0  0  0
   -0.1826  -11.6338    4.1468 H   0  0  0  0  0  0  0  0  0  0  0  0
    0.3869  -10.8640    5.6408 H   0  0  0  0  0  0  0  0  0  0  0  0
    1.1476  -10.1500    2.7582 H   0  0  0  0  0  0  0  0  0  0  0  0
    4.3055   -9.6730    4.9322 H   0  0  0  0  0  0  0  0  0  0  0  0
    3.4101  -11.0989    4.6043 H   0  0  0  0  0  0  0  0  0  0  0  0
    4.5823  -11.2073    2.7101 H   0  0  0  0  0  0  0  0  0  0  0  0
    3.3895  -10.1914    2.0338 H   0  0  0  0  0  0  0  0  0  0  0  0
    7.3689   -8.8428    3.1504 H   0  0  0  0  0  0  0  0  0  0  0  0
    6.9815  -10.5073    2.9633 H   0  0  0  0  0  0  0  0  0  0  0  0
    6.3228   -9.6211    4.3307 H   0  0  0  0  0  0  0  0  0  0  0  0
    6.5209   -8.9645    0.5395 H   0  0  0  0  0  0  0  0  0  0  0  0
    4.8598   -9.4784    0.2530 H   0  0  0  0  0  0  0  0  0  0  0  0
    6.0442  -10.5954    0.8496 H   0  0  0  0  0  0  0  0  0  0  0  0
    4.4754   -7.6488    3.5661 H   0  0  0  0  0  0  0  0  0  0  0  0
    3.5371   -7.8902    0.7180 H   0  0  0  0  0  0  0  0  0  0  0  0
    2.7250   -7.5131    2.1673 H   0  0  0  0  0  0  0  0  0  0  0  0
    4.2259   -5.8141    0.2484 H   0  0  0  0  0  0  0  0  0  0  0  0
    2.6261   -4.3939    0.8335 H   0  0  0  0  0  0  0  0  0  0  0  0
    4.1862   -5.1539    3.2197 H   0  0  0  0  0  0  0  0  0  0  0  0
    5.8687   -3.5286    2.9104 H   0  0  0  0  0  0  0  0  0  0  0  0
    7.1425   -3.1181    0.8986 H   0  0  0  0  0  0  0  0  0  0  0  0
    8.2690   -5.2897    0.4657 H   0  0  0  0  0  0  0  0  0  0  0  0
    8.1637   -4.9359    2.1784 H   0  0  0  0  0  0  0  0  0  0  0  0
    6.3431   -6.6688    0.5189 H   0  0  0  0  0  0  0  0  0  0  0  0
    7.5674   -7.2545    1.6470 H   0  0  0  0  0  0  0  0  0  0  0  0
    6.8568   -5.2745    4.1017 H   0  0  0  0  0  0  0  0  0  0  0  0
    7.2260   -6.9725    4.1860 H   0  0  0  0  0  0  0  0  0  0  0  0
    5.6996   -6.3815    4.8007 H   0  0  0  0  0  0  0  0  0  0  0  0
    2.1827   -0.6522    1.5338 H   0  0  0  0  0  0  0  0  0  0  0  0
    3.5220   -2.2688    3.3442 H   0  0  0  0  0  0  0  0  0  0  0  0
    0.1595   -7.6067    5.5837 H   0  0  0  0  0  0  0  0  0  0  0  0
   -0.9464   -8.9495    5.7792 H   0  0  0  0  0  0  0  0  0  0  0  0
   -1.4363   -7.4663    4.9474 H   0  0  0  0  0  0  0  0  0  0  0  0
    0.8141   -7.0052    2.9728 H   0  0  0  0  0  0  0  0  0  0  0  0
   -0.8681   -6.9903    2.6396 H   0  0  0  0  0  0  0  0  0  0  0  0
    0.1713   -8.0615    1.6953 H   0  0  0  0  0  0  0  0  0  0  0  0
   -1.6718  -10.0734    3.9502 H   0  0  0  0  0  0  0  0  0  0  0  0
    3.1116   -1.2571   -0.7326 H   0  0  0  0  0  0  0  0  0  0  0  0
  1  2  1  0
  1 32  1  0
  1 33  1  0
  1 34  1  0
  2  3  1  0
  2 28  1  0
  2 35  1  6
  3  4  2  0
  3  5  1  0
  5  6  1  0
  5 36  1  0
  5 37  1  0
  6  7  1  0
  6 38  1  0
  6 39  1  0
  7  8  1  0
  7  9  1  0
  7 10  1  0
  8 40  1  0
  8 41  1  0
  8 42  1  0
  9 43  1  0
  9 44  1  0
  9 45  1  0
 10 19  1  0
 10 11  1  0
 10 46  1  1
 11 12  1  0
 11 47  1  0
 11 48  1  0
 12 13  1  0
 12 14  1  0
 12 49  1  6
 13 50  1  0
 14 19  1  0
 14 15  1  0
 14 51  1  1
 15 27  1  0
 15 16  1  0
 15 52  1  1
 16 17  1  0
 16 21  1  0
 16 53  1  6
 17 18  1  0
 17 54  1  0
 17 55  1  0
 18 19  1  0
 18 56  1  0
 18 57  1  0
 19 20  1  1
 20 58  1  0
 20 59  1  0
 20 60  1  0
 21 22  1  0
 22 23  1  0
 23 27  1  0
 23 24  2  0
 24 25  1  0
 24 70  1  0
 25 26  2  0
 25 61  1  0
 26 27  1  0
 26 62  1  0
 28 29  1  0
 28 30  1  0
 28 31  1  0
 29 63  1  0
 29 64  1  0
 29 65  1  0
 30 66  1  0
 30 67  1  0
 30 68  1  0
 31 69  1  0
M  CHG  1  24   1
M  END
>  <i_m_ct_stereo_status>  (296) 
1

>  <s_m_source_file>  (296) 
/var/tmp/pbs.5083858.sched01/tmpb5pk4yey/120vdy36rhu.sdf

>  <i_m_source_file_index>  (296) 
3

>  <i_lp_mmshare_version>  (296) 
48012

>  <i_f3d_flags>  (296) 
0

>  <s_epik_input>  (296) 
W0NIM11DKFtDSDNdKShbT0hdKVtDQEhdKFtDSDNdKUMoPU8pW0NIMl1bQ0gyXUMoW0NIM10pKFtDSDNdKVtDQEBIXTFbQ0gyXVtDQEBIXShbT0hdKVtDQEBIXShbQ0BAXTEyW0NIM10pW0NASF0zW0NAQEhdKFtDSDJdW0NIMl0yKU9PYzRuM1tjSF1bY0hdbjQ=

>  <s_epik_cmdline>  (296) 
J2VwaWtfcHl0aG9uJywgJy1waHQnLCAnMi4wJywgJy1waCcsICc3LjAnLCAnLXRuJywgJzgnLCAnLW1hJywgJzIwMCcsICctaW1hZScsICc8aW5maWxlLm1hZT4nLCAnLW9tYWUnLCAnPG91dGZpbGUubWFlPic=

>  <r_lp_tautomer_probability>  (296) 
1

>  <r_epik_Ionization_Penalty>  (296) 
0.617248

>  <r_epik_Ionization_Penalty_Charging>  (296) 
0

>  <r_epik_Ionization_Penalty_Neutral>  (296) 
0.617248

>  <r_epik_State_Penalty>  (296) 
0.174341

>  <r_epik_Charging_Adjusted_Penalty>  (296) 
0.174341

>  <i_epik_Tot_Q>  (296) 
1

>  <i_epik_Tot_abs_Q>  (296) 
1

>  <s_lp_Force_Field>  (296) 
OPLS3e

>  <r_lp_Energy>  (296) 
42.2116

>  <b_lp_Chiralities_Consistent>  (296) 
1

>  <s_lp_Variant>  (296) 
85:0-1

>  <s_i_glide_gridfile>  (296) 
pfpi4k_grid

>  <i_i_glide_lignum>  (296) 
3

>  <i_i_glide_rotatable_bonds>  (296) 
8

>  <r_i_docking_score>  (296) 
-2.89794

>  <r_i_glide_ligand_efficiency>  (296) 
-0.0934821

>  <r_i_glide_ligand_efficiency_sa>  (296) 
-0.293663

>  <r_i_glide_ligand_efficiency_ln>  (296) 
-0.653575

>  <r_i_glide_gscore>  (296) 
-2.89794

>  <r_i_glide_lipo>  (296) 
-0.468043

>  <r_i_glide_hbond>  (296) 
-0.16417

>  <r_i_glide_metal>  (296) 
-0

>  <r_i_glide_rewards>  (296) 
-0.463835

>  <r_i_glide_evdw>  (296) 
-23.4679

>  <r_i_glide_ecoul>  (296) 
-7.80575

>  <r_i_glide_erotb>  (296) 
0.630131

>  <r_i_glide_esite>  (296) 
-0.0877672

>  <r_i_glide_emodel>  (296) 
-34.4714

>  <r_i_glide_energy>  (296) 
-31.2737

>  <r_i_glide_einternal>  (296) 
6.15595

>  <r_i_glide_intrahb_reward>  (296) 
-0

>  <i_i_glide_confnum>  (296) 
3

>  <i_i_glide_posenum>  (296) 
27

>  <r_i_glide_eff_state_penalty>  (296) 
0

>  <ligand_id>  (296) 
85

>  <original_smiles>  (296) 
CC(C(=O)CCC(C)(C)C1CC(O)C2C3C(CCC21C)OOc1nccn13)C(C)(C)O

>  <smiles>  (296) 
[H]OC1([H])C([H])([H])C([H])(C(C([H])([H])[H])(C([H])([H])[H])C([H])([H])C([H])([H])C(=O)C([H])(C([H])([H])[H])C(O[H])(C([H])([H])[H])C([H])([H])[H])C2(C([H])([H])[H])C([H])([H])C([H])([H])C3([H])OOc4n(c([H])c([H])[n+]4[H])C3([H])C12[H]

$$$$
85:0:1
     RDKit          3D

 70 73  0  0  1  0  0  0  0  0999 V2000
    0.0145   -9.8024    3.0248 C   0  0  0  0  0  0  0  0  0  0  0  0
    0.8615   -8.5412    3.2574 C   0  0  2  0  0  0  0  0  0  0  0  0
    1.9145   -8.7933    4.3704 C   0  0  0  0  0  0  0  0  0  0  0  0
    2.0247   -8.0637    5.3512 O   0  0  0  0  0  0  0  0  0  0  0  0
    2.8669   -9.9755    4.2562 C   0  0  0  0  0  0  0  0  0  0  0  0
    3.6005  -10.1083    2.8953 C   0  0  0  0  0  0  0  0  0  0  0  0
    4.8363   -9.1782    2.5962 C   0  0  0  0  0  0  0  0  0  0  0  0
    5.9779   -9.6164    3.5554 C   0  0  0  0  0  0  0  0  0  0  0  0
    5.2880   -9.5140    1.1462 C   0  0  0  0  0  0  0  0  0  0  0  0
    4.4493   -7.6375    2.6939 C   0  0  2  0  0  0  0  0  0  0  0  0
    3.4085   -7.1819    1.6620 C   0  0  0  0  0  0  0  0  0  0  0  0
    3.6307   -5.7607    1.2376 C   0  0  1  0  0  0  0  0  0  0  0  0
    2.4336   -5.0333    0.9371 O   0  0  0  0  0  0  0  0  0  0  0  0
    4.5404   -5.2337    2.3825 C   0  0  2  0  0  0  0  0  0  0  0  0
    5.3186   -3.9336    2.0468 C   0  0  1  0  0  0  0  0  0  0  0  0
    6.4395   -4.1511    1.0078 C   0  0  1  0  0  0  0  0  0  0  0  0
    7.3325   -5.3387    1.3581 C   0  0  0  0  0  0  0  0  0  0  0  0
    6.5219   -6.5940    1.5942 C   0  0  0  0  0  0  0  0  0  0  0  0
    5.4668   -6.4521    2.7146 C   0  0  2  0  0  0  0  0  0  0  0  0
    6.1316   -6.2921    4.1104 C   0  0  0  0  0  0  0  0  0  0  0  0
    5.8213   -4.3562   -0.2641 O   0  0  0  0  0  0  0  0  0  0  0  0
    5.1204   -3.0840   -0.7194 O   0  0  0  0  0  0  0  0  0  0  0  0
    4.3208   -2.5687    0.2797 C   0  0  0  0  0  0  0  0  0  0  0  0
    3.4440   -1.5955    0.1290 N   0  0  0  0  0  0  0  0  0  0  0  0
    2.9654   -1.2350    1.3719 C   0  0  0  0  0  0  0  0  0  0  0  0
    3.5891   -2.0664    2.2976 C   0  0  0  0  0  0  0  0  0  0  0  0
    4.4388   -2.8809    1.5651 N   0  0  0  0  0  0  0  0  0  0  0  0
    0.0996   -7.1475    3.3585 C   0  0  0  0  0  0  0  0  0  0  0  0
   -0.9735   -7.2105    4.4524 C   0  0  0  0  0  0  0  0  0  0  0  0
    0.8996   -5.8574    3.6718 C   0  0  0  0  0  0  0  0  0  0  0  0
   -0.5743   -6.9252    2.1202 O   0  0  0  0  0  0  0  0  0  0  0  0
    0.6748  -10.6624    2.8825 H   0  0  0  0  0  0  0  0  0  0  0  0
   -0.5443   -9.7043    2.0838 H   0  0  0  0  0  0  0  0  0  0  0  0
   -0.6305   -9.9729    3.8616 H   0  0  0  0  0  0  0  0  0  0  0  0
    1.3507   -8.5905    2.2874 H   0  0  0  0  0  0  0  0  0  0  0  0
    3.5731   -9.9113    5.0837 H   0  0  0  0  0  0  0  0  0  0  0  0
    2.2458  -10.8521    4.4612 H   0  0  0  0  0  0  0  0  0  0  0  0
    3.9154  -11.1487    2.8301 H   0  0  0  0  0  0  0  0  0  0  0  0
    2.8821  -10.0348    2.0795 H   0  0  0  0  0  0  0  0  0  0  0  0
    6.8154   -8.9367    3.5203 H   0  0  0  0  0  0  0  0  0  0  0  0
    6.3920  -10.5807    3.2565 H   0  0  0  0  0  0  0  0  0  0  0  0
    5.6572   -9.7119    4.5936 H   0  0  0  0  0  0  0  0  0  0  0  0
    6.1488   -8.9462    0.8341 H   0  0  0  0  0  0  0  0  0  0  0  0
    4.4987   -9.3338    0.4118 H   0  0  0  0  0  0  0  0  0  0  0  0
    5.6012  -10.5473    1.0330 H   0  0  0  0  0  0  0  0  0  0  0  0
    4.0333   -7.5434    3.6867 H   0  0  0  0  0  0  0  0  0  0  0  0
    3.1431   -7.8537    0.8776 H   0  0  0  0  0  0  0  0  0  0  0  0
    2.5235   -7.1761    2.2655 H   0  0  0  0  0  0  0  0  0  0  0  0
    4.1326   -5.7860    0.2876 H   0  0  0  0  0  0  0  0  0  0  0  0
    2.6089   -4.0630    0.9578 H   0  0  0  0  0  0  0  0  0  0  0  0
    3.9486   -5.0446    3.2938 H   0  0  0  0  0  0  0  0  0  0  0  0
    5.7739   -3.5757    2.9668 H   0  0  0  0  0  0  0  0  0  0  0  0
    7.0718   -3.2584    0.9862 H   0  0  0  0  0  0  0  0  0  0  0  0
    8.0384   -5.5341    0.5511 H   0  0  0  0  0  0  0  0  0  0  0  0
    7.9261   -5.1398    2.2465 H   0  0  0  0  0  0  0  0  0  0  0  0
    6.0180   -6.8368    0.6590 H   0  0  0  0  0  0  0  0  0  0  0  0
    7.2053   -7.4085    1.8308 H   0  0  0  0  0  0  0  0  0  0  0  0
    6.6302   -5.3338    4.1873 H   0  0  0  0  0  0  0  0  0  0  0  0
    6.8961   -7.0386    4.3150 H   0  0  0  0  0  0  0  0  0  0  0  0
    5.4023   -6.3502    4.9240 H   0  0  0  0  0  0  0  0  0  0  0  0
    2.2369   -0.4452    1.5064 H   0  0  0  0  0  0  0  0  0  0  0  0
    3.5002   -2.1127    3.3623 H   0  0  0  0  0  0  0  0  0  0  0  0
   -0.4725   -7.3922    5.4106 H   0  0  0  0  0  0  0  0  0  0  0  0
   -1.7281   -7.9963    4.2706 H   0  0  0  0  0  0  0  0  0  0  0  0
   -1.4754   -6.2464    4.5232 H   0  0  0  0  0  0  0  0  0  0  0  0
    1.5986   -5.9176    4.4866 H   0  0  0  0  0  0  0  0  0  0  0  0
    0.3104   -4.9553    3.7286 H   0  0  0  0  0  0  0  0  0  0  0  0
    1.5416   -5.6267    2.8262 H   0  0  0  0  0  0  0  0  0  0  0  0
   -0.9102   -7.7506    1.7663 H   0  0  0  0  0  0  0  0  0  0  0  0
    3.1381   -1.1655   -0.7365 H   0  0  0  0  0  0  0  0  0  0  0  0
  1  2  1  0
  1 32  1  0
  1 33  1  0
  1 34  1  0
  2  3  1  0
  2 28  1  0
  2 35  1  6
  3  4  2  0
  3  5  1  0
  5  6  1  0
  5 36  1  0
  5 37  1  0
  6  7  1  0
  6 38  1  0
  6 39  1  0
  7  8  1  0
  7  9  1  0
  7 10  1  0
  8 40  1  0
  8 41  1  0
  8 42  1  0
  9 43  1  0
  9 44  1  0
  9 45  1  0
 10 19  1  0
 10 11  1  0
 10 46  1  1
 11 12  1  0
 11 47  1  0
 11 48  1  0
 12 13  1  0
 12 14  1  0
 12 49  1  6
 13 50  1  0
 14 19  1  0
 14 15  1  0
 14 51  1  1
 15 27  1  0
 15 16  1  0
 15 52  1  1
 16 17  1  0
 16 21  1  0
 16 53  1  6
 17 18  1  0
 17 54  1  0
 17 55  1  0
 18 19  1  0
 18 56  1  0
 18 57  1  0
 19 20  1  1
 20 58  1  0
 20 59  1  0
 20 60  1  0
 21 22  1  0
 22 23  1  0
 23 27  1  0
 23 24  2  0
 24 25  1  0
 24 70  1  0
 25 26  2  0
 25 61  1  0
 26 27  1  0
 26 62  1  0
 28 29  1  0
 28 30  1  0
 28 31  1  0
 29 63  1  0
 29 64  1  0
 29 65  1  0
 30 66  1  0
 30 67  1  0
 30 68  1  0
 31 69  1  0
M  CHG  1  24   1
M  END
>  <i_m_ct_stereo_status>  (297) 
1

>  <s_m_source_file>  (297) 
/var/tmp/pbs.5083858.sched01/tmpb5pk4yey/120vdy36rhu.sdf

>  <i_m_source_file_index>  (297) 
3

>  <i_lp_mmshare_version>  (297) 
48012

>  <i_f3d_flags>  (297) 
0

>  <s_epik_input>  (297) 
W0NIM11DKFtDSDNdKShbT0hdKVtDQEhdKFtDSDNdKUMoPU8pW0NIMl1bQ0gyXUMoW0NIM10pKFtDSDNdKVtDQEBIXTFbQ0gyXVtDQEBIXShbT0hdKVtDQEBIXShbQ0BAXTEyW0NIM10pW0NASF0zW0NAQEhdKFtDSDJdW0NIMl0yKU9PYzRuM1tjSF1bY0hdbjQ=

>  <s_epik_cmdline>  (297) 
J2VwaWtfcHl0aG9uJywgJy1waHQnLCAnMi4wJywgJy1waCcsICc3LjAnLCAnLXRuJywgJzgnLCAnLW1hJywgJzIwMCcsICctaW1hZScsICc8aW5maWxlLm1hZT4nLCAnLW9tYWUnLCAnPG91dGZpbGUubWFlPic=

>  <r_lp_tautomer_probability>  (297) 
1

>  <r_epik_Ionization_Penalty>  (297) 
0.617248

>  <r_epik_Ionization_Penalty_Charging>  (297) 
0

>  <r_epik_Ionization_Penalty_Neutral>  (297) 
0.617248

>  <r_epik_State_Penalty>  (297) 
0.174341

>  <r_epik_Charging_Adjusted_Penalty>  (297) 
0.174341

>  <i_epik_Tot_Q>  (297) 
1

>  <i_epik_Tot_abs_Q>  (297) 
1

>  <s_lp_Force_Field>  (297) 
OPLS3e

>  <r_lp_Energy>  (297) 
42.2116

>  <b_lp_Chiralities_Consistent>  (297) 
1

>  <s_lp_Variant>  (297) 
85:0-1

>  <s_i_glide_gridfile>  (297) 
pfpi4k_grid

>  <i_i_glide_lignum>  (297) 
3

>  <i_i_glide_rotatable_bonds>  (297) 
8

>  <r_i_docking_score>  (297) 
-2.54782

>  <r_i_glide_ligand_efficiency>  (297) 
-0.0821877

>  <r_i_glide_ligand_efficiency_sa>  (297) 
-0.258183

>  <r_i_glide_ligand_efficiency_ln>  (297) 
-0.574611

>  <r_i_glide_gscore>  (297) 
-2.54782

>  <r_i_glide_lipo>  (297) 
-0.408194

>  <r_i_glide_hbond>  (297) 
-0.161734

>  <r_i_glide_metal>  (297) 
-0

>  <r_i_glide_rewards>  (297) 
-0.461253

>  <r_i_glide_evdw>  (297) 
-24.5988

>  <r_i_glide_ecoul>  (297) 
-8.08608

>  <r_i_glide_erotb>  (297) 
0.630131

>  <r_i_glide_esite>  (297) 
-0.0899508

>  <r_i_glide_emodel>  (297) 
-32.4415

>  <r_i_glide_energy>  (297) 
-32.6849

>  <r_i_glide_einternal>  (297) 
5.44382

>  <r_i_glide_intrahb_reward>  (297) 
-0

>  <i_i_glide_confnum>  (297) 
3

>  <i_i_glide_posenum>  (297) 
13

>  <r_i_glide_eff_state_penalty>  (297) 
0

>  <ligand_id>  (297) 
85

>  <original_smiles>  (297) 
CC(C(=O)CCC(C)(C)C1CC(O)C2C3C(CCC21C)OOc1nccn13)C(C)(C)O

>  <smiles>  (297) 
[H]OC1([H])C([H])([H])C([H])(C(C([H])([H])[H])(C([H])([H])[H])C([H])([H])C([H])([H])C(=O)C([H])(C([H])([H])[H])C(O[H])(C([H])([H])[H])C([H])([H])[H])C2(C([H])([H])[H])C([H])([H])C([H])([H])C3([H])OOc4n(c([H])c([H])[n+]4[H])C3([H])C12[H]

$$$$
85:0:2
     RDKit          3D

 70 73  0  0  1  0  0  0  0  0999 V2000
   -1.6523   -7.3879    4.1548 C   0  0  0  0  0  0  0  0  0  0  0  0
   -0.1351   -7.5961    3.8736 C   0  0  2  0  0  0  0  0  0  0  0  0
    0.6055   -6.2516    3.9197 C   0  0  0  0  0  0  0  0  0  0  0  0
    1.0692   -5.6883    2.9220 O   0  0  0  0  0  0  0  0  0  0  0  0
    0.5260   -5.5455    5.2522 C   0  0  0  0  0  0  0  0  0  0  0  0
    1.8383   -4.7627    5.5847 C   0  0  0  0  0  0  0  0  0  0  0  0
    1.8240   -3.8608    6.8791 C   0  0  0  0  0  0  0  0  0  0  0  0
    1.1579   -4.6668    8.0377 C   0  0  0  0  0  0  0  0  0  0  0  0
    3.2989   -3.6857    7.3633 C   0  0  0  0  0  0  0  0  0  0  0  0
    1.1557   -2.4163    6.7022 C   0  0  2  0  0  0  0  0  0  0  0  0
   -0.3159   -2.3833    6.1881 C   0  0  0  0  0  0  0  0  0  0  0  0
   -0.4101   -1.1991    5.2367 C   0  0  1  0  0  0  0  0  0  0  0  0
   -1.6860   -0.6023    5.3925 O   0  0  0  0  0  0  0  0  0  0  0  0
    0.7576   -0.2737    5.6070 C   0  0  2  0  0  0  0  0  0  0  0  0
    1.1322    0.8517    4.5944 C   0  0  1  0  0  0  0  0  0  0  0  0
    1.8965    0.3774    3.3532 C   0  0  1  0  0  0  0  0  0  0  0  0
    3.0715   -0.5228    3.7314 C   0  0  0  0  0  0  0  0  0  0  0  0
    2.5909   -1.6758    4.5978 C   0  0  0  0  0  0  0  0  0  0  0  0
    1.9191   -1.2447    5.9394 C   0  0  2  0  0  0  0  0  0  0  0  0
    2.9434   -0.5286    6.8661 C   0  0  0  0  0  0  0  0  0  0  0  0
    0.9386   -0.3260    2.5610 O   0  0  0  0  0  0  0  0  0  0  0  0
    0.0038    0.6781    1.9472 O   0  0  0  0  0  0  0  0  0  0  0  0
   -0.5754    1.4154    2.9467 C   0  0  0  0  0  0  0  0  0  0  0  0
   -1.6529    2.1987    2.8260 N   0  0  0  0  0  0  0  0  0  0  0  0
   -1.7926    2.9298    3.9811 C   0  0  0  0  0  0  0  0  0  0  0  0
   -0.7863    2.5443    4.8193 C   0  0  0  0  0  0  0  0  0  0  0  0
   -0.0510    1.6047    4.1598 N   0  0  0  0  0  0  0  0  0  0  0  0
    0.1678   -8.4790    2.6316 C   0  0  0  0  0  0  0  0  0  0  0  0
    1.6830   -8.6776    2.4140 C   0  0  0  0  0  0  0  0  0  0  0  0
   -0.5026   -9.8579    2.7488 C   0  0  0  0  0  0  0  0  0  0  0  0
   -0.3766   -7.8491    1.4886 O   0  0  0  0  0  0  0  0  0  0  0  0
   -1.8376   -6.7764    5.0399 H   0  0  0  0  0  0  0  0  0  0  0  0
   -2.1633   -8.3332    4.3502 H   0  0  0  0  0  0  0  0  0  0  0  0
   -2.1731   -6.9057    3.3270 H   0  0  0  0  0  0  0  0  0  0  0  0
    0.2437   -8.1345    4.7431 H   0  0  0  0  0  0  0  0  0  0  0  0
   -0.3337   -4.9501    4.9949 H   0  0  0  0  0  0  0  0  0  0  0  0
    0.2476   -6.2671    6.0369 H   0  0  0  0  0  0  0  0  0  0  0  0
    2.6540   -5.4954    5.6831 H   0  0  0  0  0  0  0  0  0  0  0  0
    2.1442   -4.1915    4.7066 H   0  0  0  0  0  0  0  0  0  0  0  0
    1.0071   -4.0703    8.9361 H   0  0  0  0  0  0  0  0  0  0  0  0
    1.7837   -5.5189    8.3209 H   0  0  0  0  0  0  0  0  0  0  0  0
    0.1799   -5.0672    7.7871 H   0  0  0  0  0  0  0  0  0  0  0  0
    3.3516   -3.0677    8.2675 H   0  0  0  0  0  0  0  0  0  0  0  0
    3.9421   -3.2297    6.6152 H   0  0  0  0  0  0  0  0  0  0  0  0
    3.7962   -4.6371    7.5780 H   0  0  0  0  0  0  0  0  0  0  0  0
    1.0834   -2.0546    7.7368 H   0  0  0  0  0  0  0  0  0  0  0  0
   -0.6138   -3.1841    5.5612 H   0  0  0  0  0  0  0  0  0  0  0  0
   -1.0005   -2.3253    7.0426 H   0  0  0  0  0  0  0  0  0  0  0  0
   -0.2894   -1.5560    4.2087 H   0  0  0  0  0  0  0  0  0  0  0  0
   -1.8238    0.0236    4.7049 H   0  0  0  0  0  0  0  0  0  0  0  0
    0.4619    0.2096    6.5367 H   0  0  0  0  0  0  0  0  0  0  0  0
    1.7429    1.5786    5.1119 H   0  0  0  0  0  0  0  0  0  0  0  0
    2.2962    1.2356    2.8046 H   0  0  0  0  0  0  0  0  0  0  0  0
    3.5112   -0.9369    2.8289 H   0  0  0  0  0  0  0  0  0  0  0  0
    3.8619    0.0360    4.2383 H   0  0  0  0  0  0  0  0  0  0  0  0
    1.8817   -2.2240    3.9763 H   0  0  0  0  0  0  0  0  0  0  0  0
    3.4516   -2.3227    4.7507 H   0  0  0  0  0  0  0  0  0  0  0  0
    3.2502    0.4294    6.4536 H   0  0  0  0  0  0  0  0  0  0  0  0
    3.8637   -1.0912    7.0068 H   0  0  0  0  0  0  0  0  0  0  0  0
    2.5252   -0.3409    7.8559 H   0  0  0  0  0  0  0  0  0  0  0  0
   -2.5852    3.6801    4.1042 H   0  0  0  0  0  0  0  0  0  0  0  0
   -0.5270    2.8954    5.8277 H   0  0  0  0  0  0  0  0  0  0  0  0
    2.1474   -9.1080    3.3048 H   0  0  0  0  0  0  0  0  0  0  0  0
    2.2212   -7.7572    2.1904 H   0  0  0  0  0  0  0  0  0  0  0  0
    1.8757   -9.3447    1.5762 H   0  0  0  0  0  0  0  0  0  0  0  0
   -0.1970  -10.3613    3.6677 H   0  0  0  0  0  0  0  0  0  0  0  0
   -0.2156  -10.5070    1.9231 H   0  0  0  0  0  0  0  0  0  0  0  0
   -1.5915   -9.7980    2.7451 H   0  0  0  0  0  0  0  0  0  0  0  0
   -0.2265   -8.4612    0.7588 H   0  0  0  0  0  0  0  0  0  0  0  0
   -2.2343    2.2690    1.9887 H   0  0  0  0  0  0  0  0  0  0  0  0
  1  2  1  0
  1 32  1  0
  1 33  1  0
  1 34  1  0
  2  3  1  0
  2 28  1  0
  2 35  1  1
  3  4  2  0
  3  5  1  0
  5  6  1  0
  5 36  1  0
  5 37  1  0
  6  7  1  0
  6 38  1  0
  6 39  1  0
  7  8  1  0
  7  9  1  0
  7 10  1  0
  8 40  1  0
  8 41  1  0
  8 42  1  0
  9 43  1  0
  9 44  1  0
  9 45  1  0
 10 19  1  0
 10 11  1  0
 10 46  1  1
 11 12  1  0
 11 47  1  0
 11 48  1  0
 12 13  1  0
 12 14  1  0
 12 49  1  6
 13 50  1  0
 14 19  1  0
 14 15  1  0
 14 51  1  1
 15 27  1  0
 15 16  1  0
 15 52  1  1
 16 17  1  0
 16 21  1  0
 16 53  1  6
 17 18  1  0
 17 54  1  0
 17 55  1  0
 18 19  1  0
 18 56  1  0
 18 57  1  0
 19 20  1  1
 20 58  1  0
 20 59  1  0
 20 60  1  0
 21 22  1  0
 22 23  1  0
 23 27  1  0
 23 24  2  0
 24 25  1  0
 24 70  1  0
 25 26  2  0
 25 61  1  0
 26 27  1  0
 26 62  1  0
 28 29  1  0
 28 30  1  0
 28 31  1  0
 29 63  1  0
 29 64  1  0
 29 65  1  0
 30 66  1  0
 30 67  1  0
 30 68  1  0
 31 69  1  0
M  CHG  1  24   1
M  END
>  <i_m_ct_stereo_status>  (298) 
1

>  <s_m_source_file>  (298) 
/var/tmp/pbs.5083858.sched01/tmpb5pk4yey/120vdy36rhu.sdf

>  <i_m_source_file_index>  (298) 
3

>  <i_lp_mmshare_version>  (298) 
48012

>  <i_f3d_flags>  (298) 
0

>  <s_epik_input>  (298) 
W0NIM11DKFtDSDNdKShbT0hdKVtDQEhdKFtDSDNdKUMoPU8pW0NIMl1bQ0gyXUMoW0NIM10pKFtDSDNdKVtDQEBIXTFbQ0gyXVtDQEBIXShbT0hdKVtDQEBIXShbQ0BAXTEyW0NIM10pW0NASF0zW0NAQEhdKFtDSDJdW0NIMl0yKU9PYzRuM1tjSF1bY0hdbjQ=

>  <s_epik_cmdline>  (298) 
J2VwaWtfcHl0aG9uJywgJy1waHQnLCAnMi4wJywgJy1waCcsICc3LjAnLCAnLXRuJywgJzgnLCAnLW1hJywgJzIwMCcsICctaW1hZScsICc8aW5maWxlLm1hZT4nLCAnLW9tYWUnLCAnPG91dGZpbGUubWFlPic=

>  <r_lp_tautomer_probability>  (298) 
1

>  <r_epik_Ionization_Penalty>  (298) 
0.617248

>  <r_epik_Ionization_Penalty_Charging>  (298) 
0

>  <r_epik_Ionization_Penalty_Neutral>  (298) 
0.617248

>  <r_epik_State_Penalty>  (298) 
0.174341

>  <r_epik_Charging_Adjusted_Penalty>  (298) 
0.174341

>  <i_epik_Tot_Q>  (298) 
1

>  <i_epik_Tot_abs_Q>  (298) 
1

>  <s_lp_Force_Field>  (298) 
OPLS3e

>  <r_lp_Energy>  (298) 
42.2116

>  <b_lp_Chiralities_Consistent>  (298) 
1

>  <s_lp_Variant>  (298) 
85:0-1

>  <s_i_glide_gridfile>  (298) 
pfpi4k_grid

>  <i_i_glide_lignum>  (298) 
3

>  <i_i_glide_rotatable_bonds>  (298) 
8

>  <r_i_docking_score>  (298) 
-2.26402

>  <r_i_glide_ligand_efficiency>  (298) 
-0.0730329

>  <r_i_glide_ligand_efficiency_sa>  (298) 
-0.229424

>  <r_i_glide_ligand_efficiency_ln>  (298) 
-0.510606

>  <r_i_glide_gscore>  (298) 
-2.26402

>  <r_i_glide_lipo>  (298) 
0

>  <r_i_glide_hbond>  (298) 
0

>  <r_i_glide_metal>  (298) 
-0

>  <r_i_glide_rewards>  (298) 
-0.439249

>  <r_i_glide_evdw>  (298) 
-24.9002

>  <r_i_glide_ecoul>  (298) 
-7.21907

>  <r_i_glide_erotb>  (298) 
0.630131

>  <r_i_glide_esite>  (298) 
-0.127032

>  <r_i_glide_emodel>  (298) 
-33.1917

>  <r_i_glide_energy>  (298) 
-32.1193

>  <r_i_glide_einternal>  (298) 
5.25799

>  <r_i_glide_intrahb_reward>  (298) 
-0

>  <i_i_glide_confnum>  (298) 
7

>  <i_i_glide_posenum>  (298) 
11

>  <r_i_glide_eff_state_penalty>  (298) 
0

>  <ligand_id>  (298) 
85

>  <original_smiles>  (298) 
CC(C(=O)CCC(C)(C)C1CC(O)C2C3C(CCC21C)OOc1nccn13)C(C)(C)O

>  <smiles>  (298) 
[H]OC1([H])C([H])([H])C([H])(C(C([H])([H])[H])(C([H])([H])[H])C([H])([H])C([H])([H])C(=O)C([H])(C([H])([H])[H])C(O[H])(C([H])([H])[H])C([H])([H])[H])C2(C([H])([H])[H])C([H])([H])C([H])([H])C3([H])OOc4n(c([H])c([H])[n+]4[H])C3([H])C12[H]

$$$$
85:1:0
     RDKit          3D

 69 72  0  0  1  0  0  0  0  0999 V2000
    5.0431   -0.8148   -1.5713 C   0  0  0  0  0  0  0  0  0  0  0  0
    4.0898   -1.9745   -1.8861 C   0  0  2  0  0  0  0  0  0  0  0  0
    4.8962   -3.2603   -1.6901 C   0  0  0  0  0  0  0  0  0  0  0  0
    5.7877   -3.5937   -2.4656 O   0  0  0  0  0  0  0  0  0  0  0  0
    4.5172   -4.0987   -0.4881 C   0  0  0  0  0  0  0  0  0  0  0  0
    5.6052   -5.0754    0.0474 C   0  0  0  0  0  0  0  0  0  0  0  0
    5.3711   -5.7239    1.4522 C   0  0  0  0  0  0  0  0  0  0  0  0
    6.6277   -6.5965    1.7152 C   0  0  0  0  0  0  0  0  0  0  0  0
    5.3969   -4.5739    2.4851 C   0  0  0  0  0  0  0  0  0  0  0  0
    4.0638   -6.6315    1.4689 C   0  0  2  0  0  0  0  0  0  0  0  0
    2.7356   -5.9348    1.0976 C   0  0  0  0  0  0  0  0  0  0  0  0
    1.5876   -6.5316    1.8816 C   0  0  1  0  0  0  0  0  0  0  0  0
    0.4522   -6.6255    1.0309 O   0  0  0  0  0  0  0  0  0  0  0  0
    2.1641   -7.8672    2.3760 C   0  0  2  0  0  0  0  0  0  0  0  0
    1.3872   -8.5462    3.5399 C   0  0  1  0  0  0  0  0  0  0  0  0
    1.6275   -7.8701    4.8919 C   0  0  1  0  0  0  0  0  0  0  0  0
    3.1093   -7.6374    5.1828 C   0  0  0  0  0  0  0  0  0  0  0  0
    3.7877   -6.8686    4.0448 C   0  0  0  0  0  0  0  0  0  0  0  0
    3.6713   -7.5668    2.6678 C   0  0  2  0  0  0  0  0  0  0  0  0
    4.4853   -8.8838    2.6631 C   0  0  0  0  0  0  0  0  0  0  0  0
    0.9316   -6.6350    4.8411 O   0  0  0  0  0  0  0  0  0  0  0  0
   -0.5571   -6.9308    4.8919 O   0  0  0  0  0  0  0  0  0  0  0  0
   -0.9336   -7.7272    3.8739 C   0  0  0  0  0  0  0  0  0  0  0  0
   -2.1817   -7.8965    3.4354 N   0  0  0  0  0  0  0  0  0  0  0  0
   -2.0673   -8.9993    2.5669 C   0  0  0  0  0  0  0  0  0  0  0  0
   -0.7615   -9.3938    2.4859 C   0  0  0  0  0  0  0  0  0  0  0  0
   -0.0412   -8.5447    3.3050 N   0  0  0  0  0  0  0  0  0  0  0  0
    3.3406   -1.8629   -3.2472 C   0  0  0  0  0  0  0  0  0  0  0  0
    2.1512   -2.8341   -3.3367 C   0  0  0  0  0  0  0  0  0  0  0  0
    2.8546   -0.4380   -3.5323 C   0  0  0  0  0  0  0  0  0  0  0  0
    4.1997   -2.1396   -4.3067 O   0  0  0  0  0  0  0  0  0  0  0  0
    5.5264   -0.9440   -0.5950 H   0  0  0  0  0  0  0  0  0  0  0  0
    4.5323    0.1438   -1.5523 H   0  0  0  0  0  0  0  0  0  0  0  0
    5.8193   -0.7623   -2.3209 H   0  0  0  0  0  0  0  0  0  0  0  0
    3.3242   -1.9452   -1.1047 H   0  0  0  0  0  0  0  0  0  0  0  0
    4.1663   -3.4287    0.3080 H   0  0  0  0  0  0  0  0  0  0  0  0
    3.6671   -4.6453   -0.8954 H   0  0  0  0  0  0  0  0  0  0  0  0
    5.7325   -5.8534   -0.6987 H   0  0  0  0  0  0  0  0  0  0  0  0
    6.5469   -4.5361    0.0705 H   0  0  0  0  0  0  0  0  0  0  0  0
    6.7008   -6.9107    2.7571 H   0  0  0  0  0  0  0  0  0  0  0  0
    7.5572   -6.0582    1.5074 H   0  0  0  0  0  0  0  0  0  0  0  0
    6.6482   -7.4966    1.0972 H   0  0  0  0  0  0  0  0  0  0  0  0
    5.4905   -4.9108    3.5123 H   0  0  0  0  0  0  0  0  0  0  0  0
    4.5174   -3.9390    2.4261 H   0  0  0  0  0  0  0  0  0  0  0  0
    6.2676   -3.9365    2.3230 H   0  0  0  0  0  0  0  0  0  0  0  0
    4.2291   -7.3134    0.6322 H   0  0  0  0  0  0  0  0  0  0  0  0
    2.7417   -4.8697    1.3195 H   0  0  0  0  0  0  0  0  0  0  0  0
    2.5287   -6.1022    0.0421 H   0  0  0  0  0  0  0  0  0  0  0  0
    1.3536   -5.8502    2.6993 H   0  0  0  0  0  0  0  0  0  0  0  0
    0.4357   -7.4942    0.6429 H   0  0  0  0  0  0  0  0  0  0  0  0
    2.1419   -8.5515    1.5253 H   0  0  0  0  0  0  0  0  0  0  0  0
    1.7044   -9.5818    3.6060 H   0  0  0  0  0  0  0  0  0  0  0  0
    1.2098   -8.4864    5.6876 H   0  0  0  0  0  0  0  0  0  0  0  0
    3.2045   -7.0733    6.1107 H   0  0  0  0  0  0  0  0  0  0  0  0
    3.6114   -8.5933    5.3480 H   0  0  0  0  0  0  0  0  0  0  0  0
    3.3627   -5.8642    3.9964 H   0  0  0  0  0  0  0  0  0  0  0  0
    4.8306   -6.7629    4.3242 H   0  0  0  0  0  0  0  0  0  0  0  0
    4.0381   -9.6337    3.3151 H   0  0  0  0  0  0  0  0  0  0  0  0
    5.5046   -8.7400    3.0157 H   0  0  0  0  0  0  0  0  0  0  0  0
    4.5381   -9.3259    1.6674 H   0  0  0  0  0  0  0  0  0  0  0  0
   -2.9307   -9.4530    2.0946 H   0  0  0  0  0  0  0  0  0  0  0  0
   -0.2950  -10.1935    1.9273 H   0  0  0  0  0  0  0  0  0  0  0  0
    1.4243   -2.6586   -2.5351 H   0  0  0  0  0  0  0  0  0  0  0  0
    2.4674   -3.8716   -3.2665 H   0  0  0  0  0  0  0  0  0  0  0  0
    1.6141   -2.7250   -4.2818 H   0  0  0  0  0  0  0  0  0  0  0  0
    2.2217   -0.0864   -2.7252 H   0  0  0  0  0  0  0  0  0  0  0  0
    2.2770   -0.3936   -4.4586 H   0  0  0  0  0  0  0  0  0  0  0  0
    3.6771    0.2690   -3.6441 H   0  0  0  0  0  0  0  0  0  0  0  0
    5.0678   -1.8646   -4.0567 H   0  0  0  0  0  0  0  0  0  0  0  0
  1  2  1  0
  1 32  1  0
  1 33  1  0
  1 34  1  0
  2  3  1  0
  2 28  1  0
  2 35  1  1
  3  4  2  0
  3  5  1  0
  5  6  1  0
  5 36  1  0
  5 37  1  0
  6  7  1  0
  6 38  1  0
  6 39  1  0
  7  8  1  0
  7  9  1  0
  7 10  1  0
  8 40  1  0
  8 41  1  0
  8 42  1  0
  9 43  1  0
  9 44  1  0
  9 45  1  0
 10 19  1  0
 10 11  1  0
 10 46  1  6
 11 12  1  0
 11 47  1  0
 11 48  1  0
 12 13  1  0
 12 14  1  0
 12 49  1  1
 13 50  1  0
 14 19  1  0
 14 15  1  0
 14 51  1  6
 15 27  1  0
 15 16  1  0
 15 52  1  1
 16 17  1  0
 16 21  1  0
 16 53  1  1
 17 18  1  0
 17 54  1  0
 17 55  1  0
 18 19  1  0
 18 56  1  0
 18 57  1  0
 19 20  1  1
 20 58  1  0
 20 59  1  0
 20 60  1  0
 21 22  1  0
 22 23  1  0
 23 27  1  0
 23 24  2  0
 24 25  1  0
 25 26  2  0
 25 61  1  0
 26 27  1  0
 26 62  1  0
 28 29  1  0
 28 30  1  0
 28 31  1  0
 29 63  1  0
 29 64  1  0
 29 65  1  0
 30 66  1  0
 30 67  1  0
 30 68  1  0
 31 69  1  0
M  END
>  <i_m_ct_stereo_status>  (299) 
1

>  <s_m_source_file>  (299) 
/var/tmp/pbs.5083858.sched01/tmpb5pk4yey/120vdy36rhu.sdf

>  <i_m_source_file_index>  (299) 
4

>  <i_lp_mmshare_version>  (299) 
48012

>  <i_f3d_flags>  (299) 
0

>  <s_epik_input>  (299) 
W0NIM11DKFtDSDNdKShbT0hdKVtDQEhdKFtDSDNdKUMoPU8pW0NIMl1bQ0gyXUMoW0NIM10pKFtDSDNdKVtDQEBIXTFbQ0gyXVtDQEBIXShbT0hdKVtDQEBIXShbQ0BAXTEyW0NIM10pW0NASF0zW0NAQEhdKFtDSDJdW0NIMl0yKU9PYzRuM1tjSF1bY0hdbjQ=

>  <s_epik_cmdline>  (299) 
J2VwaWtfcHl0aG9uJywgJy1waHQnLCAnMi4wJywgJy1waCcsICc3LjAnLCAnLXRuJywgJzgnLCAnLW1hJywgJzIwMCcsICctaW1hZScsICc8aW5maWxlLm1hZT4nLCAnLW9tYWUnLCAnPG91dGZpbGUubWFlPic=

>  <r_lp_tautomer_probability>  (299) 
1

>  <r_epik_Ionization_Penalty>  (299) 
1.59227

>  <r_epik_Ionization_Penalty_Charging>  (299) 
1.59227

>  <r_epik_Ionization_Penalty_Neutral>  (299) 
1.9796e-06

>  <r_epik_State_Penalty>  (299) 
0.809829

>  <r_epik_Charging_Adjusted_Penalty>  (299) 
2.4021

>  <i_epik_Tot_Q>  (299) 
0

>  <i_epik_Tot_abs_Q>  (299) 
0

>  <s_lp_Force_Field>  (299) 
OPLS3e

>  <r_lp_Energy>  (299) 
40.8271

>  <b_lp_Chiralities_Consistent>  (299) 
1

>  <s_lp_Variant>  (299) 
85:0-2

>  <s_i_glide_gridfile>  (299) 
pfpi4k_grid

>  <i_i_glide_lignum>  (299) 
4

>  <i_i_glide_rotatable_bonds>  (299) 
8

>  <r_i_docking_score>  (299) 
-4.26393

>  <r_i_glide_ligand_efficiency>  (299) 
-0.137546

>  <r_i_glide_ligand_efficiency_sa>  (299) 
-0.432085

>  <r_i_glide_ligand_efficiency_ln>  (299) 
-0.961648

>  <r_i_glide_gscore>  (299) 
-4.26393

>  <r_i_glide_lipo>  (299) 
-1.0487

>  <r_i_glide_hbond>  (299) 
-0.147

>  <r_i_glide_metal>  (299) 
-0

>  <r_i_glide_rewards>  (299) 
-0.517842

>  <r_i_glide_evdw>  (299) 
-32.8549

>  <r_i_glide_ecoul>  (299) 
-9.60727

>  <r_i_glide_erotb>  (299) 
0.632783

>  <r_i_glide_esite>  (299) 
-0.0993408

>  <r_i_glide_emodel>  (299) 
-49.9157

>  <r_i_glide_energy>  (299) 
-42.4622

>  <r_i_glide_einternal>  (299) 
5.47142

>  <r_i_glide_intrahb_reward>  (299) 
-0

>  <i_i_glide_confnum>  (299) 
3

>  <i_i_glide_posenum>  (299) 
25

>  <r_i_glide_eff_state_penalty>  (299) 
0

>  <ligand_id>  (299) 
85

>  <original_smiles>  (299) 
CC(C(=O)CCC(C)(C)C1CC(O)C2C3C(CCC21C)OOc1nccn13)C(C)(C)O

>  <smiles>  (299) 
[H]OC1([H])C([H])([H])C([H])(C(C([H])([H])[H])(C([H])([H])[H])C([H])([H])C([H])([H])C(=O)C([H])(C([H])([H])[H])C(O[H])(C([H])([H])[H])C([H])([H])[H])C2(C([H])([H])[H])C([H])([H])C([H])([H])C3([H])OOc4nc([H])c([H])n4C3([H])C12[H]

$$$$
85:1:1
     RDKit          3D

 69 72  0  0  1  0  0  0  0  0999 V2000
    0.6585   -8.6768    5.2660 C   0  0  0  0  0  0  0  0  0  0  0  0
    0.7490   -7.8971    3.9436 C   0  0  2  0  0  0  0  0  0  0  0  0
    0.9400   -6.4196    4.3078 C   0  0  0  0  0  0  0  0  0  0  0  0
    0.1807   -5.8178    5.0679 O   0  0  0  0  0  0  0  0  0  0  0  0
    2.0758   -5.7092    3.5976 C   0  0  0  0  0  0  0  0  0  0  0  0
    2.6574   -4.4539    4.3163 C   0  0  0  0  0  0  0  0  0  0  0  0
    3.9713   -3.8269    3.7327 C   0  0  0  0  0  0  0  0  0  0  0  0
    4.4570   -2.8066    4.7937 C   0  0  0  0  0  0  0  0  0  0  0  0
    5.0268   -4.9576    3.6704 C   0  0  0  0  0  0  0  0  0  0  0  0
    3.6755   -3.0705    2.3637 C   0  0  2  0  0  0  0  0  0  0  0  0
    2.9259   -3.8930    1.3050 C   0  0  0  0  0  0  0  0  0  0  0  0
    3.3415   -3.4506   -0.0817 C   0  0  1  0  0  0  0  0  0  0  0  0
    2.2132   -3.4078   -0.9327 O   0  0  0  0  0  0  0  0  0  0  0  0
    4.0681   -2.1154    0.1444 C   0  0  2  0  0  0  0  0  0  0  0  0
    5.0084   -1.6454   -1.0040 C   0  0  1  0  0  0  0  0  0  0  0  0
    6.3268   -2.4208   -1.0537 C   0  0  1  0  0  0  0  0  0  0  0  0
    7.0175   -2.5187    0.2968 C   0  0  0  0  0  0  0  0  0  0  0  0
    6.0659   -3.0930    1.3443 C   0  0  0  0  0  0  0  0  0  0  0  0
    4.7602   -2.2887    1.5345 C   0  0  2  0  0  0  0  0  0  0  0  0
    5.0717   -0.9001    2.1409 C   0  0  0  0  0  0  0  0  0  0  0  0
    5.9887   -3.7107   -1.5274 O   0  0  0  0  0  0  0  0  0  0  0  0
    5.6477   -3.5966   -2.9908 O   0  0  0  0  0  0  0  0  0  0  0  0
    4.6089   -2.7677   -3.1872 C   0  0  0  0  0  0  0  0  0  0  0  0
    3.8632   -2.6639   -4.2530 N   0  0  0  0  0  0  0  0  0  0  0  0
    3.1536   -1.4854   -4.0941 C   0  0  0  0  0  0  0  0  0  0  0  0
    3.4434   -0.9615   -2.8645 C   0  0  0  0  0  0  0  0  0  0  0  0
    4.3715   -1.7863   -2.2891 N   0  0  0  0  0  0  0  0  0  0  0  0
   -0.4300   -8.1634    2.9514 C   0  0  0  0  0  0  0  0  0  0  0  0
   -0.5281   -9.6539    2.5734 C   0  0  0  0  0  0  0  0  0  0  0  0
   -1.7954   -7.6781    3.4601 C   0  0  0  0  0  0  0  0  0  0  0  0
   -0.1857   -7.4921    1.7253 O   0  0  0  0  0  0  0  0  0  0  0  0
    1.5137   -8.4390    5.9029 H   0  0  0  0  0  0  0  0  0  0  0  0
    0.6654   -9.7556    5.1121 H   0  0  0  0  0  0  0  0  0  0  0  0
   -0.2415   -8.4131    5.8242 H   0  0  0  0  0  0  0  0  0  0  0  0
    1.6623   -8.2246    3.4416 H   0  0  0  0  0  0  0  0  0  0  0  0
    2.8604   -6.4356    3.3624 H   0  0  0  0  0  0  0  0  0  0  0  0
    1.5699   -5.4590    2.6692 H   0  0  0  0  0  0  0  0  0  0  0  0
    1.8809   -3.6923    4.3930 H   0  0  0  0  0  0  0  0  0  0  0  0
    2.8586   -4.7609    5.3416 H   0  0  0  0  0  0  0  0  0  0  0  0
    5.4735   -2.4666    4.6017 H   0  0  0  0  0  0  0  0  0  0  0  0
    4.4785   -3.2398    5.7975 H   0  0  0  0  0  0  0  0  0  0  0  0
    3.8142   -1.9240    4.8497 H   0  0  0  0  0  0  0  0  0  0  0  0
    6.0446   -4.6098    3.5454 H   0  0  0  0  0  0  0  0  0  0  0  0
    4.8241   -5.6624    2.8699 H   0  0  0  0  0  0  0  0  0  0  0  0
    5.0476   -5.5101    4.6101 H   0  0  0  0  0  0  0  0  0  0  0  0
    2.9566   -2.2984    2.6483 H   0  0  0  0  0  0  0  0  0  0  0  0
    3.1905   -4.9442    1.3450 H   0  0  0  0  0  0  0  0  0  0  0  0
    1.8538   -3.7497    1.4452 H   0  0  0  0  0  0  0  0  0  0  0  0
    4.0096   -4.2198   -0.4692 H   0  0  0  0  0  0  0  0  0  0  0  0
    1.8453   -2.5245   -0.9365 H   0  0  0  0  0  0  0  0  0  0  0  0
    3.2856   -1.3638    0.2620 H   0  0  0  0  0  0  0  0  0  0  0  0
    5.2273   -0.5915   -0.8495 H   0  0  0  0  0  0  0  0  0  0  0  0
    7.0086   -1.9590   -1.7685 H   0  0  0  0  0  0  0  0  0  0  0  0
    7.8954   -3.1619    0.2097 H   0  0  0  0  0  0  0  0  0  0  0  0
    7.3763   -1.5370    0.6104 H   0  0  0  0  0  0  0  0  0  0  0  0
    5.8456   -4.1342    1.0979 H   0  0  0  0  0  0  0  0  0  0  0  0
    6.6180   -3.0770    2.2688 H   0  0  0  0  0  0  0  0  0  0  0  0
    5.6170   -0.2678    1.4398 H   0  0  0  0  0  0  0  0  0  0  0  0
    5.6872   -0.9750    3.0348 H   0  0  0  0  0  0  0  0  0  0  0  0
    4.1591   -0.3664    2.4071 H   0  0  0  0  0  0  0  0  0  0  0  0
    2.5007   -1.0529   -4.8360 H   0  0  0  0  0  0  0  0  0  0  0  0
    3.0786   -0.0774   -2.3989 H   0  0  0  0  0  0  0  0  0  0  0  0
   -0.7087  -10.2686    3.4520 H   0  0  0  0  0  0  0  0  0  0  0  0
    0.3857  -10.0258    2.1042 H   0  0  0  0  0  0  0  0  0  0  0  0
   -1.3593   -9.8500    1.8910 H   0  0  0  0  0  0  0  0  0  0  0  0
   -2.0430   -8.1333    4.4165 H   0  0  0  0  0  0  0  0  0  0  0  0
   -2.5856   -7.9435    2.7590 H   0  0  0  0  0  0  0  0  0  0  0  0
   -1.8208   -6.6015    3.5902 H   0  0  0  0  0  0  0  0  0  0  0  0
    0.1997   -8.1185    1.1192 H   0  0  0  0  0  0  0  0  0  0  0  0
  1  2  1  0
  1 32  1  0
  1 33  1  0
  1 34  1  0
  2  3  1  0
  2 28  1  0
  2 35  1  6
  3  4  2  0
  3  5  1  0
  5  6  1  0
  5 36  1  0
  5 37  1  0
  6  7  1  0
  6 38  1  0
  6 39  1  0
  7  8  1  0
  7  9  1  0
  7 10  1  0
  8 40  1  0
  8 41  1  0
  8 42  1  0
  9 43  1  0
  9 44  1  0
  9 45  1  0
 10 19  1  0
 10 11  1  0
 10 46  1  1
 11 12  1  0
 11 47  1  0
 11 48  1  0
 12 13  1  0
 12 14  1  0
 12 49  1  6
 13 50  1  0
 14 19  1  0
 14 15  1  0
 14 51  1  1
 15 27  1  0
 15 16  1  0
 15 52  1  1
 16 17  1  0
 16 21  1  0
 16 53  1  6
 17 18  1  0
 17 54  1  0
 17 55  1  0
 18 19  1  0
 18 56  1  0
 18 57  1  0
 19 20  1  1
 20 58  1  0
 20 59  1  0
 20 60  1  0
 21 22  1  0
 22 23  1  0
 23 27  1  0
 23 24  2  0
 24 25  1  0
 25 26  2  0
 25 61  1  0
 26 27  1  0
 26 62  1  0
 28 29  1  0
 28 30  1  0
 28 31  1  0
 29 63  1  0
 29 64  1  0
 29 65  1  0
 30 66  1  0
 30 67  1  0
 30 68  1  0
 31 69  1  0
M  END
>  <i_m_ct_stereo_status>  (300) 
1

>  <s_m_source_file>  (300) 
/var/tmp/pbs.5083858.sched01/tmpb5pk4yey/120vdy36rhu.sdf

>  <i_m_source_file_index>  (300) 
4

>  <i_lp_mmshare_version>  (300) 
48012

>  <i_f3d_flags>  (300) 
0

>  <s_epik_input>  (300) 
W0NIM11DKFtDSDNdKShbT0hdKVtDQEhdKFtDSDNdKUMoPU8pW0NIMl1bQ0gyXUMoW0NIM10pKFtDSDNdKVtDQEBIXTFbQ0gyXVtDQEBIXShbT0hdKVtDQEBIXShbQ0BAXTEyW0NIM10pW0NASF0zW0NAQEhdKFtDSDJdW0NIMl0yKU9PYzRuM1tjSF1bY0hdbjQ=

>  <s_epik_cmdline>  (300) 
J2VwaWtfcHl0aG9uJywgJy1waHQnLCAnMi4wJywgJy1waCcsICc3LjAnLCAnLXRuJywgJzgnLCAnLW1hJywgJzIwMCcsICctaW1hZScsICc8aW5maWxlLm1hZT4nLCAnLW9tYWUnLCAnPG91dGZpbGUubWFlPic=

>  <r_lp_tautomer_probability>  (300) 
1

>  <r_epik_Ionization_Penalty>  (300) 
1.59227

>  <r_epik_Ionization_Penalty_Charging>  (300) 
1.59227

>  <r_epik_Ionization_Penalty_Neutral>  (300) 
1.9796e-06

>  <r_epik_State_Penalty>  (300) 
0.809829

>  <r_epik_Charging_Adjusted_Penalty>  (300) 
2.4021

>  <i_epik_Tot_Q>  (300) 
0

>  <i_epik_Tot_abs_Q>  (300) 
0

>  <s_lp_Force_Field>  (300) 
OPLS3e

>  <r_lp_Energy>  (300) 
40.8271

>  <b_lp_Chiralities_Consistent>  (300) 
1

>  <s_lp_Variant>  (300) 
85:0-2

>  <s_i_glide_gridfile>  (300) 
pfpi4k_grid

>  <i_i_glide_lignum>  (300) 
4

>  <i_i_glide_rotatable_bonds>  (300) 
8

>  <r_i_docking_score>  (300) 
-3.70305

>  <r_i_glide_ligand_efficiency>  (300) 
-0.119453

>  <r_i_glide_ligand_efficiency_sa>  (300) 
-0.375248

>  <r_i_glide_ligand_efficiency_ln>  (300) 
-0.835151

>  <r_i_glide_gscore>  (300) 
-3.70305

>  <r_i_glide_lipo>  (300) 
-0.46602

>  <r_i_glide_hbond>  (300) 
-0.600643

>  <r_i_glide_metal>  (300) 
-0

>  <r_i_glide_rewards>  (300) 
-0.617251

>  <r_i_glide_evdw>  (300) 
-30.733

>  <r_i_glide_ecoul>  (300) 
-7.24267

>  <r_i_glide_erotb>  (300) 
0.632783

>  <r_i_glide_esite>  (300) 
-0.028868

>  <r_i_glide_emodel>  (300) 
-43.9788

>  <r_i_glide_energy>  (300) 
-37.9757

>  <r_i_glide_einternal>  (300) 
5.08463

>  <r_i_glide_intrahb_reward>  (300) 
-0

>  <i_i_glide_confnum>  (300) 
4

>  <i_i_glide_posenum>  (300) 
21

>  <r_i_glide_eff_state_penalty>  (300) 
0

>  <ligand_id>  (300) 
85

>  <original_smiles>  (300) 
CC(C(=O)CCC(C)(C)C1CC(O)C2C3C(CCC21C)OOc1nccn13)C(C)(C)O

>  <smiles>  (300) 
[H]OC1([H])C([H])([H])C([H])(C(C([H])([H])[H])(C([H])([H])[H])C([H])([H])C([H])([H])C(=O)C([H])(C([H])([H])[H])C(O[H])(C([H])([H])[H])C([H])([H])[H])C2(C([H])([H])[H])C([H])([H])C([H])([H])C3([H])OOc4nc([H])c([H])n4C3([H])C12[H]

$$$$
85:1:2
     RDKit          3D

 69 72  0  0  1  0  0  0  0  0999 V2000
    0.4244   -8.8746    5.4472 C   0  0  0  0  0  0  0  0  0  0  0  0
    0.5923   -7.8218    4.3387 C   0  0  2  0  0  0  0  0  0  0  0  0
    0.6729   -6.4512    5.0190 C   0  0  0  0  0  0  0  0  0  0  0  0
   -0.1286   -6.0891    5.8819 O   0  0  0  0  0  0  0  0  0  0  0  0
    1.7664   -5.5356    4.4874 C   0  0  0  0  0  0  0  0  0  0  0  0
    1.8073   -4.0820    5.0640 C   0  0  0  0  0  0  0  0  0  0  0  0
    2.8990   -3.1005    4.5176 C   0  0  0  0  0  0  0  0  0  0  0  0
    2.7026   -1.7845    5.3114 C   0  0  0  0  0  0  0  0  0  0  0  0
    4.2749   -3.6753    4.9246 C   0  0  0  0  0  0  0  0  0  0  0  0
    2.7093   -2.8170    2.9627 C   0  0  2  0  0  0  0  0  0  0  0  0
    2.6926   -4.0526    2.0476 C   0  0  0  0  0  0  0  0  0  0  0  0
    3.3064   -3.7247    0.7075 C   0  0  1  0  0  0  0  0  0  0  0  0
    2.5045   -4.3181   -0.3013 O   0  0  0  0  0  0  0  0  0  0  0  0
    3.2899   -2.1899    0.6790 C   0  0  2  0  0  0  0  0  0  0  0  0
    4.2018   -1.5362   -0.4024 C   0  0  1  0  0  0  0  0  0  0  0  0
    5.6783   -1.5854   -0.0061 C   0  0  1  0  0  0  0  0  0  0  0  0
    5.9398   -1.1026    1.4210 C   0  0  0  0  0  0  0  0  0  0  0  0
    5.0803   -1.8639    2.4305 C   0  0  0  0  0  0  0  0  0  0  0  0
    3.5619   -1.7636    2.1566 C   0  0  2  0  0  0  0  0  0  0  0  0
    3.0643   -0.3150    2.3825 C   0  0  0  0  0  0  0  0  0  0  0  0
    6.0850   -2.9369   -0.1757 O   0  0  0  0  0  0  0  0  0  0  0  0
    6.1560   -3.2134   -1.6621 O   0  0  0  0  0  0  0  0  0  0  0  0
    4.9688   -3.0183   -2.2601 C   0  0  0  0  0  0  0  0  0  0  0  0
    4.6078   -3.4610   -3.4544 N   0  0  0  0  0  0  0  0  0  0  0  0
    3.3916   -2.8068   -3.6926 C   0  0  0  0  0  0  0  0  0  0  0  0
    3.0686   -2.0116   -2.6379 C   0  0  0  0  0  0  0  0  0  0  0  0
    4.0771   -2.1676   -1.7002 N   0  0  0  0  0  0  0  0  0  0  0  0
   -0.4778   -7.9186    3.1962 C   0  0  0  0  0  0  0  0  0  0  0  0
   -0.4841   -9.3099    2.5236 C   0  0  0  0  0  0  0  0  0  0  0  0
   -1.8993   -7.5780    3.6547 C   0  0  0  0  0  0  0  0  0  0  0  0
   -0.1729   -7.0061    2.1510 O   0  0  0  0  0  0  0  0  0  0  0  0
    1.2095   -8.7493    6.1971 H   0  0  0  0  0  0  0  0  0  0  0  0
    0.4936   -9.8969    5.0703 H   0  0  0  0  0  0  0  0  0  0  0  0
   -0.5351   -8.7568    5.9548 H   0  0  0  0  0  0  0  0  0  0  0  0
    1.5605   -8.0023    3.8704 H   0  0  0  0  0  0  0  0  0  0  0  0
    2.7554   -6.0222    4.5816 H   0  0  0  0  0  0  0  0  0  0  0  0
    1.4947   -5.5276    3.4333 H   0  0  0  0  0  0  0  0  0  0  0  0
    0.8235   -3.6407    4.9423 H   0  0  0  0  0  0  0  0  0  0  0  0
    1.9468   -4.1676    6.1329 H   0  0  0  0  0  0  0  0  0  0  0  0
    3.5409   -1.0977    5.1928 H   0  0  0  0  0  0  0  0  0  0  0  0
    2.6217   -1.9671    6.3879 H   0  0  0  0  0  0  0  0  0  0  0  0
    1.7931   -1.2543    5.0176 H   0  0  0  0  0  0  0  0  0  0  0  0
    5.0929   -2.9682    4.8299 H   0  0  0  0  0  0  0  0  0  0  0  0
    4.5345   -4.5657    4.3586 H   0  0  0  0  0  0  0  0  0  0  0  0
    4.2754   -3.9470    5.9820 H   0  0  0  0  0  0  0  0  0  0  0  0
    1.6873   -2.4359    2.8977 H   0  0  0  0  0  0  0  0  0  0  0  0
    3.2540   -4.8921    2.4500 H   0  0  0  0  0  0  0  0  0  0  0  0
    1.6562   -4.3634    1.9031 H   0  0  0  0  0  0  0  0  0  0  0  0
    4.3227   -4.1348    0.6722 H   0  0  0  0  0  0  0  0  0  0  0  0
    2.9926   -4.3999   -1.1156 H   0  0  0  0  0  0  0  0  0  0  0  0
    2.2596   -1.9034    0.4757 H   0  0  0  0  0  0  0  0  0  0  0  0
    3.9014   -0.4976   -0.5147 H   0  0  0  0  0  0  0  0  0  0  0  0
    6.2430   -0.9498   -0.6887 H   0  0  0  0  0  0  0  0  0  0  0  0
    6.9944   -1.2430    1.6645 H   0  0  0  0  0  0  0  0  0  0  0  0
    5.7390   -0.0304    1.4962 H   0  0  0  0  0  0  0  0  0  0  0  0
    5.3895   -2.9109    2.4398 H   0  0  0  0  0  0  0  0  0  0  0  0
    5.3065   -1.4450    3.4040 H   0  0  0  0  0  0  0  0  0  0  0  0
    3.4582    0.3690    1.6314 H   0  0  0  0  0  0  0  0  0  0  0  0
    3.3721    0.0691    3.3514 H   0  0  0  0  0  0  0  0  0  0  0  0
    1.9763   -0.2531    2.3274 H   0  0  0  0  0  0  0  0  0  0  0  0
    2.8455   -2.9280   -4.6275 H   0  0  0  0  0  0  0  0  0  0  0  0
    2.2314   -1.3351   -2.4455 H   0  0  0  0  0  0  0  0  0  0  0  0
   -0.7282  -10.1049    3.2288 H   0  0  0  0  0  0  0  0  0  0  0  0
    0.4870   -9.5543    2.0900 H   0  0  0  0  0  0  0  0  0  0  0  0
   -1.2344   -9.3776    1.7288 H   0  0  0  0  0  0  0  0  0  0  0  0
   -2.1908   -8.2286    4.4727 H   0  0  0  0  0  0  0  0  0  0  0  0
   -2.6107   -7.7210    2.8434 H   0  0  0  0  0  0  0  0  0  0  0  0
   -1.9841   -6.5507    3.9947 H   0  0  0  0  0  0  0  0  0  0  0  0
    0.5885   -7.3392    1.6841 H   0  0  0  0  0  0  0  0  0  0  0  0
  1  2  1  0
  1 32  1  0
  1 33  1  0
  1 34  1  0
  2  3  1  0
  2 28  1  0
  2 35  1  6
  3  4  2  0
  3  5  1  0
  5  6  1  0
  5 36  1  0
  5 37  1  0
  6  7  1  0
  6 38  1  0
  6 39  1  0
  7  8  1  0
  7  9  1  0
  7 10  1  0
  8 40  1  0
  8 41  1  0
  8 42  1  0
  9 43  1  0
  9 44  1  0
  9 45  1  0
 10 19  1  0
 10 11  1  0
 10 46  1  1
 11 12  1  0
 11 47  1  0
 11 48  1  0
 12 13  1  0
 12 14  1  0
 12 49  1  1
 13 50  1  0
 14 19  1  0
 14 15  1  0
 14 51  1  6
 15 27  1  0
 15 16  1  0
 15 52  1  6
 16 17  1  0
 16 21  1  0
 16 53  1  6
 17 18  1  0
 17 54  1  0
 17 55  1  0
 18 19  1  0
 18 56  1  0
 18 57  1  0
 19 20  1  6
 20 58  1  0
 20 59  1  0
 20 60  1  0
 21 22  1  0
 22 23  1  0
 23 27  1  0
 23 24  2  0
 24 25  1  0
 25 26  2  0
 25 61  1  0
 26 27  1  0
 26 62  1  0
 28 29  1  0
 28 30  1  0
 28 31  1  0
 29 63  1  0
 29 64  1  0
 29 65  1  0
 30 66  1  0
 30 67  1  0
 30 68  1  0
 31 69  1  0
M  END
>  <i_m_ct_stereo_status>  (301) 
1

>  <s_m_source_file>  (301) 
/var/tmp/pbs.5083858.sched01/tmpb5pk4yey/120vdy36rhu.sdf

>  <i_m_source_file_index>  (301) 
4

>  <i_lp_mmshare_version>  (301) 
48012

>  <i_f3d_flags>  (301) 
0

>  <s_epik_input>  (301) 
W0NIM11DKFtDSDNdKShbT0hdKVtDQEhdKFtDSDNdKUMoPU8pW0NIMl1bQ0gyXUMoW0NIM10pKFtDSDNdKVtDQEBIXTFbQ0gyXVtDQEBIXShbT0hdKVtDQEBIXShbQ0BAXTEyW0NIM10pW0NASF0zW0NAQEhdKFtDSDJdW0NIMl0yKU9PYzRuM1tjSF1bY0hdbjQ=

>  <s_epik_cmdline>  (301) 
J2VwaWtfcHl0aG9uJywgJy1waHQnLCAnMi4wJywgJy1waCcsICc3LjAnLCAnLXRuJywgJzgnLCAnLW1hJywgJzIwMCcsICctaW1hZScsICc8aW5maWxlLm1hZT4nLCAnLW9tYWUnLCAnPG91dGZpbGUubWFlPic=

>  <r_lp_tautomer_probability>  (301) 
1

>  <r_epik_Ionization_Penalty>  (301) 
1.59227

>  <r_epik_Ionization_Penalty_Charging>  (301) 
1.59227

>  <r_epik_Ionization_Penalty_Neutral>  (301) 
1.9796e-06

>  <r_epik_State_Penalty>  (301) 
0.809829

>  <r_epik_Charging_Adjusted_Penalty>  (301) 
2.4021

>  <i_epik_Tot_Q>  (301) 
0

>  <i_epik_Tot_abs_Q>  (301) 
0

>  <s_lp_Force_Field>  (301) 
OPLS3e

>  <r_lp_Energy>  (301) 
40.8271

>  <b_lp_Chiralities_Consistent>  (301) 
1

>  <s_lp_Variant>  (301) 
85:0-2

>  <s_i_glide_gridfile>  (301) 
pfpi4k_grid

>  <i_i_glide_lignum>  (301) 
4

>  <i_i_glide_rotatable_bonds>  (301) 
8

>  <r_i_docking_score>  (301) 
-3.2164

>  <r_i_glide_ligand_efficiency>  (301) 
-0.103755

>  <r_i_glide_ligand_efficiency_sa>  (301) 
-0.325933

>  <r_i_glide_ligand_efficiency_ln>  (301) 
-0.725396

>  <r_i_glide_gscore>  (301) 
-3.2164

>  <r_i_glide_lipo>  (301) 
-0.487919

>  <r_i_glide_hbond>  (301) 
-0.14812

>  <r_i_glide_metal>  (301) 
-0

>  <r_i_glide_rewards>  (301) 
-0.600355

>  <r_i_glide_evdw>  (301) 
-33.9018

>  <r_i_glide_ecoul>  (301) 
-5.87602

>  <r_i_glide_erotb>  (301) 
0.632783

>  <r_i_glide_esite>  (301) 
-0.0362917

>  <r_i_glide_emodel>  (301) 
-45.5596

>  <r_i_glide_energy>  (301) 
-39.7778

>  <r_i_glide_einternal>  (301) 
3.16327

>  <r_i_glide_intrahb_reward>  (301) 
-0

>  <i_i_glide_confnum>  (301) 
4

>  <i_i_glide_posenum>  (301) 
13

>  <r_i_glide_eff_state_penalty>  (301) 
0

>  <ligand_id>  (301) 
85

>  <original_smiles>  (301) 
CC(C(=O)CCC(C)(C)C1CC(O)C2C3C(CCC21C)OOc1nccn13)C(C)(C)O

>  <smiles>  (301) 
[H]OC1([H])C([H])([H])C([H])(C(C([H])([H])[H])(C([H])([H])[H])C([H])([H])C([H])([H])C(=O)C([H])(C([H])([H])[H])C(O[H])(C([H])([H])[H])C([H])([H])[H])C2(C([H])([H])[H])C([H])([H])C([H])([H])C3([H])OOc4nc([H])c([H])n4C3([H])C12[H]

$$$$
86:0:0
     RDKit          3D

 47 50  0  0  1  0  0  0  0  0999 V2000
    3.8566   -1.4600    2.8250 C   0  0  0  0  0  0  0  0  0  0  0  0
    4.1115   -2.2617    1.5575 C   0  0  0  0  0  0  0  0  0  0  0  0
    4.7604   -1.6715    0.6285 N   0  0  0  0  0  0  0  0  0  0  0  0
    4.9853   -2.2535   -0.5773 C   0  0  0  0  0  0  0  0  0  0  0  0
    5.4520   -1.6920   -1.6836 N   0  0  0  0  0  0  0  0  0  0  0  0
    5.4262   -2.7599   -2.5233 C   0  0  0  0  0  0  0  0  0  0  0  0
    5.0091   -3.9145   -2.0156 N   0  0  0  0  0  0  0  0  0  0  0  0
    4.7267   -3.5623   -0.7422 N   0  0  0  0  0  0  0  0  0  0  0  0
    4.2532   -4.4965    0.2747 C   0  0  1  0  0  0  0  0  0  0  0  0
    5.3502   -5.4085    0.7839 C   0  0  0  0  0  0  0  0  0  0  0  0
    5.2329   -6.6934    1.2575 C   0  0  0  0  0  0  0  0  0  0  0  0
    6.4732   -7.2504    1.6933 C   0  0  0  0  0  0  0  0  0  0  0  0
    7.5250   -6.3921    1.5478 C   0  0  0  0  0  0  0  0  0  0  0  0
    7.0182   -4.8668    0.8844 S   0  0  0  0  0  0  0  0  0  0  0  0
    3.6091   -3.6872    1.4199 C   0  0  0  0  0  0  0  0  0  0  0  0
    2.4349   -4.0842    2.0694 C   0  0  0  0  0  0  0  0  0  0  0  0
    1.6159   -3.4293    2.7391 O   0  0  0  0  0  0  0  0  0  0  0  0
    2.0522   -5.4263    1.8383 N   0  0  0  0  0  0  0  0  0  0  0  0
    1.0496   -6.2246    2.4443 C   0  0  0  0  0  0  0  0  0  0  0  0
    0.2404   -7.0127    1.5801 C   0  0  0  0  0  0  0  0  0  0  0  0
   -0.7791   -7.8501    2.0814 C   0  0  0  0  0  0  0  0  0  0  0  0
   -1.0061   -7.9304    3.4594 C   0  0  0  0  0  0  0  0  0  0  0  0
   -0.1909   -7.1875    4.3342 C   0  0  0  0  0  0  0  0  0  0  0  0
    0.8420   -6.3343    3.8492 C   0  0  0  0  0  0  0  0  0  0  0  0
    1.7025   -5.5993    4.8838 C   0  0  0  0  0  0  0  0  0  0  0  0
    2.9579   -6.3538    5.2875 C   0  0  0  0  0  0  0  0  0  0  0  0
    0.9111   -5.0140    6.0546 C   0  0  0  0  0  0  0  0  0  0  0  0
    3.9745   -2.0850    3.7033 H   0  0  0  0  0  0  0  0  0  0  0  0
    2.8698   -1.0010    2.8302 H   0  0  0  0  0  0  0  0  0  0  0  0
    4.5849   -0.6598    2.8964 H   0  0  0  0  0  0  0  0  0  0  0  0
    5.7598   -2.6784   -3.5423 H   0  0  0  0  0  0  0  0  0  0  0  0
    3.4990   -5.1148   -0.2190 H   0  0  0  0  0  0  0  0  0  0  0  0
    4.3058   -7.2491    1.3135 H   0  0  0  0  0  0  0  0  0  0  0  0
    6.5441   -8.2501    2.0882 H   0  0  0  0  0  0  0  0  0  0  0  0
    8.5632   -6.5655    1.7908 H   0  0  0  0  0  0  0  0  0  0  0  0
    2.6400   -5.9899    1.2577 H   0  0  0  0  0  0  0  0  0  0  0  0
    0.3853   -6.9939    0.5107 H   0  0  0  0  0  0  0  0  0  0  0  0
   -1.3926   -8.4252    1.4064 H   0  0  0  0  0  0  0  0  0  0  0  0
   -1.7897   -8.5778    3.8527 H   0  0  0  0  0  0  0  0  0  0  0  0
   -0.3708   -7.2901    5.3998 H   0  0  0  0  0  0  0  0  0  0  0  0
    2.1653   -4.7387    4.4847 H   0  0  0  0  0  0  0  0  0  0  0  0
    3.5307   -6.6488    4.3977 H   0  0  0  0  0  0  0  0  0  0  0  0
    2.7293   -7.2405    5.8913 H   0  0  0  0  0  0  0  0  0  0  0  0
    3.6040   -5.6769    5.8624 H   0  0  0  0  0  0  0  0  0  0  0  0
    0.0167   -4.4874    5.7029 H   0  0  0  0  0  0  0  0  0  0  0  0
    1.5308   -4.2713    6.5672 H   0  0  0  0  0  0  0  0  0  0  0  0
    0.6185   -5.7807    6.7819 H   0  0  0  0  0  0  0  0  0  0  0  0
  1 28  1  0
  1 29  1  0
  1 30  1  0
  1  2  1  0
  2 15  1  0
  2  3  2  0
  3  4  1  0
  4  8  1  0
  4  5  2  0
  5  6  1  0
  6  7  2  0
  6 31  1  0
  7  8  1  0
  8  9  1  0
  9 10  1  0
  9 32  1  6
  9 15  1  0
 10 14  1  0
 10 11  2  0
 11 12  1  0
 11 33  1  0
 12 13  2  0
 12 34  1  0
 13 14  1  0
 13 35  1  0
 15 16  2  0
 16 17  1  0
 16 18  1  0
 18 19  1  0
 18 36  1  0
 19 24  1  0
 19 20  2  0
 20 21  1  0
 20 37  1  0
 21 22  2  0
 21 38  1  0
 22 23  1  0
 22 39  1  0
 23 24  2  0
 23 40  1  0
 24 25  1  0
 25 26  1  0
 25 27  1  0
 25 41  1  0
 26 42  1  0
 26 43  1  0
 26 44  1  0
 27 45  1  0
 27 46  1  0
 27 47  1  0
M  CHG  1  17  -1
M  END
>  <i_m_ct_stereo_status>  (302) 
1

>  <s_m_source_file>  (302) 
/var/tmp/pbs.5083858.sched01/tmpb5pk4yey/120vdy36rhu.sdf

>  <i_m_source_file_index>  (302) 
5

>  <i_lp_mmshare_version>  (302) 
48012

>  <i_f3d_flags>  (302) 
0

>  <s_epik_input>  (302) 
czFbY0hdW2NIXVtjSF1jMVtDQEhdKG4oYzIzKW5bY0hdbjMpW0NASF0oQyg9TjIpW0NIM10pQyg9TylbTkhdYzRbY0hdW2NIXVtjSF1bY0hdYzRbQ0hdKFtDSDNdKVtDSDNd

>  <s_epik_cmdline>  (302) 
J2VwaWtfcHl0aG9uJywgJy1waHQnLCAnMi4wJywgJy1waCcsICc3LjAnLCAnLXRuJywgJzgnLCAnLW1hJywgJzIwMCcsICctaW1hZScsICc8aW5maWxlLm1hZT4nLCAnLW9tYWUnLCAnPG91dGZpbGUubWFlPic=

>  <r_epik_Ionization_Penalty>  (302) 
6.52904e-05

>  <r_epik_Ionization_Penalty_Charging>  (302) 
0

>  <r_epik_Ionization_Penalty_Neutral>  (302) 
6.52904e-05

>  <r_epik_State_Penalty>  (302) 
0.0271695

>  <r_epik_Charging_Adjusted_Penalty>  (302) 
0.0271695

>  <i_epik_Tot_Q>  (302) 
-1

>  <i_epik_Tot_abs_Q>  (302) 
1

>  <s_epik_Chemistry_Notes>  (302) 
This compound has an imine and may undergo hydrolysis.

>  <s_lp_Force_Field>  (302) 
OPLS3e

>  <r_lp_Energy>  (302) 
36.1459

>  <b_lp_Chiralities_Consistent>  (302) 
1

>  <s_lp_Variant>  (302) 
86:0-1

>  <s_i_glide_gridfile>  (302) 
pfpi4k_grid

>  <i_i_glide_lignum>  (302) 
5

>  <i_i_glide_rotatable_bonds>  (302) 
4

>  <r_i_docking_score>  (302) 
-2.85064

>  <r_i_glide_ligand_efficiency>  (302) 
-0.105579

>  <r_i_glide_ligand_efficiency_sa>  (302) 
-0.316738

>  <r_i_glide_ligand_efficiency_ln>  (302) 
-0.663583

>  <r_i_glide_gscore>  (302) 
-2.85064

>  <r_i_glide_lipo>  (302) 
-0.396318

>  <r_i_glide_hbond>  (302) 
0

>  <r_i_glide_metal>  (302) 
-0

>  <r_i_glide_rewards>  (302) 
-1.07343

>  <r_i_glide_evdw>  (302) 
-30.1776

>  <r_i_glide_ecoul>  (302) 
-1.52876

>  <r_i_glide_erotb>  (302) 
0.40588

>  <r_i_glide_esite>  (302) 
-0.0485846

>  <r_i_glide_emodel>  (302) 
-31.8383

>  <r_i_glide_energy>  (302) 
-31.7064

>  <r_i_glide_einternal>  (302) 
8.8737

>  <r_i_glide_intrahb_reward>  (302) 
-0

>  <i_i_glide_confnum>  (302) 
5

>  <i_i_glide_posenum>  (302) 
27

>  <r_i_glide_eff_state_penalty>  (302) 
0

>  <ligand_id>  (302) 
86

>  <original_smiles>  (302) 
CC1=Nc2ncnn2C(c2cccs2)C1C(=O)Nc1ccccc1C(C)C

>  <smiles>  (302) 
[H]c1nc2n(n1)C([H])(c1sc([H])c([H])c1[H])C(=C([O-])N([H])c1c([H])c([H])c([H])c([H])c1C([H])(C([H])([H])[H])C([H])([H])[H])C(C([H])([H])[H])=N2

$$$$
86:0:1
     RDKit          3D

 47 50  0  0  1  0  0  0  0  0999 V2000
    3.8523   -1.4547    2.8365 C   0  0  0  0  0  0  0  0  0  0  0  0
    4.1093   -2.2422    1.5648 C   0  0  0  0  0  0  0  0  0  0  0  0
    4.7620   -1.6496    0.6320 N   0  0  0  0  0  0  0  0  0  0  0  0
    4.9795   -2.2163   -0.5661 C   0  0  0  0  0  0  0  0  0  0  0  0
    5.4451   -1.6462   -1.6780 N   0  0  0  0  0  0  0  0  0  0  0  0
    5.4188   -2.7113   -2.5306 C   0  0  0  0  0  0  0  0  0  0  0  0
    5.0086   -3.8735   -2.0211 N   0  0  0  0  0  0  0  0  0  0  0  0
    4.7246   -3.5268   -0.7438 N   0  0  0  0  0  0  0  0  0  0  0  0
    4.2537   -4.4659    0.2665 C   0  0  1  0  0  0  0  0  0  0  0  0
    5.3677   -5.3514    0.7727 C   0  0  0  0  0  0  0  0  0  0  0  0
    6.6837   -5.0055    0.9638 C   0  0  0  0  0  0  0  0  0  0  0  0
    7.4810   -6.0627    1.4896 C   0  0  0  0  0  0  0  0  0  0  0  0
    6.7714   -7.2119    1.7058 C   0  0  0  0  0  0  0  0  0  0  0  0
    5.0892   -7.0153    1.2736 S   0  0  0  0  0  0  0  0  0  0  0  0
    3.6084   -3.6737    1.4139 C   0  0  0  0  0  0  0  0  0  0  0  0
    2.4275   -4.0772    2.0611 C   0  0  0  0  0  0  0  0  0  0  0  0
    1.6044   -3.4369    2.7438 O   0  0  0  0  0  0  0  0  0  0  0  0
    2.0490   -5.4110    1.8125 N   0  0  0  0  0  0  0  0  0  0  0  0
    1.0660   -6.2222    2.4350 C   0  0  0  0  0  0  0  0  0  0  0  0
    0.2461   -6.9996    1.5775 C   0  0  0  0  0  0  0  0  0  0  0  0
   -0.7653   -7.8496    2.0819 C   0  0  0  0  0  0  0  0  0  0  0  0
   -0.9658   -7.9527    3.4659 C   0  0  0  0  0  0  0  0  0  0  0  0
   -0.1324   -7.2180    4.3347 C   0  0  0  0  0  0  0  0  0  0  0  0
    0.8874   -6.3504    3.8476 C   0  0  0  0  0  0  0  0  0  0  0  0
    1.7617   -5.6458    4.8781 C   0  0  0  0  0  0  0  0  0  0  0  0
    3.0282   -6.3924    5.2392 C   0  0  0  0  0  0  0  0  0  0  0  0
    0.9932   -5.0771    6.0692 C   0  0  0  0  0  0  0  0  0  0  0  0
    3.9735   -2.0874    3.7071 H   0  0  0  0  0  0  0  0  0  0  0  0
    2.8650   -0.9996    2.8427 H   0  0  0  0  0  0  0  0  0  0  0  0
    4.5784   -0.6541    2.9106 H   0  0  0  0  0  0  0  0  0  0  0  0
    5.7473   -2.6296   -3.5423 H   0  0  0  0  0  0  0  0  0  0  0  0
    3.5075   -5.0922   -0.2310 H   0  0  0  0  0  0  0  0  0  0  0  0
    7.0835   -4.0279    0.7449 H   0  0  0  0  0  0  0  0  0  0  0  0
    8.5315   -5.9396    1.6885 H   0  0  0  0  0  0  0  0  0  0  0  0
    7.1322   -8.1446    2.0940 H   0  0  0  0  0  0  0  0  0  0  0  0
    2.6373   -5.9747    1.2323 H   0  0  0  0  0  0  0  0  0  0  0  0
    0.3804   -6.9643    0.5042 H   0  0  0  0  0  0  0  0  0  0  0  0
   -1.3813   -8.4165    1.4099 H   0  0  0  0  0  0  0  0  0  0  0  0
   -1.7388   -8.6100    3.8586 H   0  0  0  0  0  0  0  0  0  0  0  0
   -0.2950   -7.3431    5.4030 H   0  0  0  0  0  0  0  0  0  0  0  0
    2.2236   -4.7485    4.4735 H   0  0  0  0  0  0  0  0  0  0  0  0
    3.5855   -6.6682    4.3320 H   0  0  0  0  0  0  0  0  0  0  0  0
    2.8211   -7.2951    5.8329 H   0  0  0  0  0  0  0  0  0  0  0  0
    3.6863   -5.7239    5.8131 H   0  0  0  0  0  0  0  0  0  0  0  0
    0.0904   -4.5485    5.7433 H   0  0  0  0  0  0  0  0  0  0  0  0
    1.6191   -4.3388    6.5843 H   0  0  0  0  0  0  0  0  0  0  0  0
    0.7152   -5.8569    6.7925 H   0  0  0  0  0  0  0  0  0  0  0  0
  1 28  1  0
  1 29  1  0
  1 30  1  0
  1  2  1  0
  2 15  1  0
  2  3  2  0
  3  4  1  0
  4  8  1  0
  4  5  2  0
  5  6  1  0
  6  7  2  0
  6 31  1  0
  7  8  1  0
  8  9  1  0
  9 10  1  0
  9 32  1  6
  9 15  1  0
 10 14  1  0
 10 11  2  0
 11 12  1  0
 11 33  1  0
 12 13  2  0
 12 34  1  0
 13 14  1  0
 13 35  1  0
 15 16  2  0
 16 17  1  0
 16 18  1  0
 18 19  1  0
 18 36  1  0
 19 24  1  0
 19 20  2  0
 20 21  1  0
 20 37  1  0
 21 22  2  0
 21 38  1  0
 22 23  1  0
 22 39  1  0
 23 24  2  0
 23 40  1  0
 24 25  1  0
 25 26  1  0
 25 27  1  0
 25 41  1  0
 26 42  1  0
 26 43  1  0
 26 44  1  0
 27 45  1  0
 27 46  1  0
 27 47  1  0
M  CHG  1  17  -1
M  END
>  <i_m_ct_stereo_status>  (303) 
1

>  <s_m_source_file>  (303) 
/var/tmp/pbs.5083858.sched01/tmpb5pk4yey/120vdy36rhu.sdf

>  <i_m_source_file_index>  (303) 
5

>  <i_lp_mmshare_version>  (303) 
48012

>  <i_f3d_flags>  (303) 
0

>  <s_epik_input>  (303) 
czFbY0hdW2NIXVtjSF1jMVtDQEhdKG4oYzIzKW5bY0hdbjMpW0NASF0oQyg9TjIpW0NIM10pQyg9TylbTkhdYzRbY0hdW2NIXVtjSF1bY0hdYzRbQ0hdKFtDSDNdKVtDSDNd

>  <s_epik_cmdline>  (303) 
J2VwaWtfcHl0aG9uJywgJy1waHQnLCAnMi4wJywgJy1waCcsICc3LjAnLCAnLXRuJywgJzgnLCAnLW1hJywgJzIwMCcsICctaW1hZScsICc8aW5maWxlLm1hZT4nLCAnLW9tYWUnLCAnPG91dGZpbGUubWFlPic=

>  <r_epik_Ionization_Penalty>  (303) 
6.52904e-05

>  <r_epik_Ionization_Penalty_Charging>  (303) 
0

>  <r_epik_Ionization_Penalty_Neutral>  (303) 
6.52904e-05

>  <r_epik_State_Penalty>  (303) 
0.0271695

>  <r_epik_Charging_Adjusted_Penalty>  (303) 
0.0271695

>  <i_epik_Tot_Q>  (303) 
-1

>  <i_epik_Tot_abs_Q>  (303) 
1

>  <s_epik_Chemistry_Notes>  (303) 
This compound has an imine and may undergo hydrolysis.

>  <s_lp_Force_Field>  (303) 
OPLS3e

>  <r_lp_Energy>  (303) 
36.1459

>  <b_lp_Chiralities_Consistent>  (303) 
1

>  <s_lp_Variant>  (303) 
86:0-1

>  <s_i_glide_gridfile>  (303) 
pfpi4k_grid

>  <i_i_glide_lignum>  (303) 
5

>  <i_i_glide_rotatable_bonds>  (303) 
4

>  <r_i_docking_score>  (303) 
-2.79372

>  <r_i_glide_ligand_efficiency>  (303) 
-0.103471

>  <r_i_glide_ligand_efficiency_sa>  (303) 
-0.310413

>  <r_i_glide_ligand_efficiency_ln>  (303) 
-0.650332

>  <r_i_glide_gscore>  (303) 
-2.79372

>  <r_i_glide_lipo>  (303) 
-0.414884

>  <r_i_glide_hbond>  (303) 
0

>  <r_i_glide_metal>  (303) 
-0

>  <r_i_glide_rewards>  (303) 
-1.06834

>  <r_i_glide_evdw>  (303) 
-29.9976

>  <r_i_glide_ecoul>  (303) 
-1.10689

>  <r_i_glide_erotb>  (303) 
0.40588

>  <r_i_glide_esite>  (303) 
-0.0504666

>  <r_i_glide_emodel>  (303) 
-30.4918

>  <r_i_glide_energy>  (303) 
-31.1045

>  <r_i_glide_einternal>  (303) 
8.73519

>  <r_i_glide_intrahb_reward>  (303) 
-0

>  <i_i_glide_confnum>  (303) 
4

>  <i_i_glide_posenum>  (303) 
37

>  <r_i_glide_eff_state_penalty>  (303) 
0

>  <ligand_id>  (303) 
86

>  <original_smiles>  (303) 
CC1=Nc2ncnn2C(c2cccs2)C1C(=O)Nc1ccccc1C(C)C

>  <smiles>  (303) 
[H]c1nc2n(n1)C([H])(c1sc([H])c([H])c1[H])C(=C([O-])N([H])c1c([H])c([H])c([H])c([H])c1C([H])(C([H])([H])[H])C([H])([H])[H])C(C([H])([H])[H])=N2

$$$$
86:0:2
     RDKit          3D

 47 50  0  0  1  0  0  0  0  0999 V2000
    6.9968   -1.3749    0.3804 C   0  0  0  0  0  0  0  0  0  0  0  0
    5.7279   -1.8354   -0.3014 C   0  0  0  0  0  0  0  0  0  0  0  0
    5.8113   -2.1623   -1.5370 N   0  0  0  0  0  0  0  0  0  0  0  0
    4.7074   -2.5236   -2.2668 C   0  0  0  0  0  0  0  0  0  0  0  0
    4.5899   -2.6598   -3.5741 N   0  0  0  0  0  0  0  0  0  0  0  0
    3.2841   -3.0006   -3.6765 C   0  0  0  0  0  0  0  0  0  0  0  0
    2.5972   -3.0633   -2.5476 N   0  0  0  0  0  0  0  0  0  0  0  0
    3.5465   -2.7608   -1.6299 N   0  0  0  0  0  0  0  0  0  0  0  0
    3.3166   -2.7239   -0.1894 C   0  0  1  0  0  0  0  0  0  0  0  0
    3.2054   -4.1016    0.4063 C   0  0  0  0  0  0  0  0  0  0  0  0
    2.2485   -5.0571    0.1559 C   0  0  0  0  0  0  0  0  0  0  0  0
    2.4602   -6.2498    0.8950 C   0  0  0  0  0  0  0  0  0  0  0  0
    3.5749   -6.2082    1.6860 C   0  0  0  0  0  0  0  0  0  0  0  0
    4.3838   -4.6846    1.5648 S   0  0  0  0  0  0  0  0  0  0  0  0
    4.4286   -1.8659    0.4575 C   0  0  0  0  0  0  0  0  0  0  0  0
    4.1468   -0.9450    1.4807 C   0  0  0  0  0  0  0  0  0  0  0  0
    4.7631    0.0463    1.9001 O   0  0  0  0  0  0  0  0  0  0  0  0
    2.9202   -1.1200    2.1389 N   0  0  0  0  0  0  0  0  0  0  0  0
    2.3667   -0.4330    3.2444 C   0  0  0  0  0  0  0  0  0  0  0  0
    1.0520    0.0833    3.0961 C   0  0  0  0  0  0  0  0  0  0  0  0
    0.3827    0.7335    4.1532 C   0  0  0  0  0  0  0  0  0  0  0  0
    1.0106    0.8812    5.3980 C   0  0  0  0  0  0  0  0  0  0  0  0
    2.3083    0.3460    5.5825 C   0  0  0  0  0  0  0  0  0  0  0  0
    2.9976   -0.3207    4.5217 C   0  0  0  0  0  0  0  0  0  0  0  0
    4.3859   -0.9187    4.8176 C   0  0  0  0  0  0  0  0  0  0  0  0
    4.3269   -2.3360    5.3813 C   0  0  0  0  0  0  0  0  0  0  0  0
    5.2941    0.0380    5.6002 C   0  0  0  0  0  0  0  0  0  0  0  0
    7.0377   -1.7662    1.3892 H   0  0  0  0  0  0  0  0  0  0  0  0
    7.0796   -0.2901    0.4153 H   0  0  0  0  0  0  0  0  0  0  0  0
    7.8504   -1.7660   -0.1554 H   0  0  0  0  0  0  0  0  0  0  0  0
    2.8364   -3.2015   -4.6401 H   0  0  0  0  0  0  0  0  0  0  0  0
    2.3467   -2.2455   -0.0500 H   0  0  0  0  0  0  0  0  0  0  0  0
    1.4283   -4.9304   -0.5433 H   0  0  0  0  0  0  0  0  0  0  0  0
    1.8130   -7.0982    0.8120 H   0  0  0  0  0  0  0  0  0  0  0  0
    3.9759   -6.9791    2.3261 H   0  0  0  0  0  0  0  0  0  0  0  0
    2.2969   -1.8402    1.8259 H   0  0  0  0  0  0  0  0  0  0  0  0
    0.5347   -0.0315    2.1559 H   0  0  0  0  0  0  0  0  0  0  0  0
   -0.6047    1.1520    4.0161 H   0  0  0  0  0  0  0  0  0  0  0  0
    0.5194    1.4033    6.2207 H   0  0  0  0  0  0  0  0  0  0  0  0
    2.7773    0.4519    6.5631 H   0  0  0  0  0  0  0  0  0  0  0  0
    4.9369   -1.1522    3.9463 H   0  0  0  0  0  0  0  0  0  0  0  0
    3.7365   -2.9690    4.6985 H   0  0  0  0  0  0  0  0  0  0  0  0
    3.9161   -2.3849    6.4100 H   0  0  0  0  0  0  0  0  0  0  0  0
    5.3525   -2.7322    5.3655 H   0  0  0  0  0  0  0  0  0  0  0  0
    5.2684    1.0427    5.1570 H   0  0  0  0  0  0  0  0  0  0  0  0
    6.3222   -0.3170    5.5098 H   0  0  0  0  0  0  0  0  0  0  0  0
    5.0372    0.1088    6.6743 H   0  0  0  0  0  0  0  0  0  0  0  0
  1 28  1  0
  1 29  1  0
  1 30  1  0
  1  2  1  0
  2 15  1  0
  2  3  2  0
  3  4  1  0
  4  8  1  0
  4  5  2  0
  5  6  1  0
  6  7  2  0
  6 31  1  0
  7  8  1  0
  8  9  1  0
  9 10  1  0
  9 32  1  6
  9 15  1  0
 10 14  1  0
 10 11  2  0
 11 12  1  0
 11 33  1  0
 12 13  2  0
 12 34  1  0
 13 14  1  0
 13 35  1  0
 15 16  2  0
 16 17  1  0
 16 18  1  0
 18 19  1  0
 18 36  1  0
 19 24  1  0
 19 20  2  0
 20 21  1  0
 20 37  1  0
 21 22  2  0
 21 38  1  0
 22 23  1  0
 22 39  1  0
 23 24  2  0
 23 40  1  0
 24 25  1  0
 25 26  1  0
 25 27  1  0
 25 41  1  0
 26 42  1  0
 26 43  1  0
 26 44  1  0
 27 45  1  0
 27 46  1  0
 27 47  1  0
M  CHG  1  17  -1
M  END
>  <i_m_ct_stereo_status>  (304) 
1

>  <s_m_source_file>  (304) 
/var/tmp/pbs.5083858.sched01/tmpb5pk4yey/120vdy36rhu.sdf

>  <i_m_source_file_index>  (304) 
5

>  <i_lp_mmshare_version>  (304) 
48012

>  <i_f3d_flags>  (304) 
0

>  <s_epik_input>  (304) 
czFbY0hdW2NIXVtjSF1jMVtDQEhdKG4oYzIzKW5bY0hdbjMpW0NASF0oQyg9TjIpW0NIM10pQyg9TylbTkhdYzRbY0hdW2NIXVtjSF1bY0hdYzRbQ0hdKFtDSDNdKVtDSDNd

>  <s_epik_cmdline>  (304) 
J2VwaWtfcHl0aG9uJywgJy1waHQnLCAnMi4wJywgJy1waCcsICc3LjAnLCAnLXRuJywgJzgnLCAnLW1hJywgJzIwMCcsICctaW1hZScsICc8aW5maWxlLm1hZT4nLCAnLW9tYWUnLCAnPG91dGZpbGUubWFlPic=

>  <r_epik_Ionization_Penalty>  (304) 
6.52904e-05

>  <r_epik_Ionization_Penalty_Charging>  (304) 
0

>  <r_epik_Ionization_Penalty_Neutral>  (304) 
6.52904e-05

>  <r_epik_State_Penalty>  (304) 
0.0271695

>  <r_epik_Charging_Adjusted_Penalty>  (304) 
0.0271695

>  <i_epik_Tot_Q>  (304) 
-1

>  <i_epik_Tot_abs_Q>  (304) 
1

>  <s_epik_Chemistry_Notes>  (304) 
This compound has an imine and may undergo hydrolysis.

>  <s_lp_Force_Field>  (304) 
OPLS3e

>  <r_lp_Energy>  (304) 
36.1459

>  <b_lp_Chiralities_Consistent>  (304) 
1

>  <s_lp_Variant>  (304) 
86:0-1

>  <s_i_glide_gridfile>  (304) 
pfpi4k_grid

>  <i_i_glide_lignum>  (304) 
5

>  <i_i_glide_rotatable_bonds>  (304) 
4

>  <r_i_docking_score>  (304) 
-2.26697

>  <r_i_glide_ligand_efficiency>  (304) 
-0.0839619

>  <r_i_glide_ligand_efficiency_sa>  (304) 
-0.251886

>  <r_i_glide_ligand_efficiency_ln>  (304) 
-0.527714

>  <r_i_glide_gscore>  (304) 
-2.26697

>  <r_i_glide_lipo>  (304) 
-0.153092

>  <r_i_glide_hbond>  (304) 
-0.0595067

>  <r_i_glide_metal>  (304) 
-0

>  <r_i_glide_rewards>  (304) 
-1.21002

>  <r_i_glide_evdw>  (304) 
-30.2003

>  <r_i_glide_ecoul>  (304) 
2.14348

>  <r_i_glide_erotb>  (304) 
0.40588

>  <r_i_glide_esite>  (304) 
-0.0617419

>  <r_i_glide_emodel>  (304) 
-27.4072

>  <r_i_glide_energy>  (304) 
-28.0568

>  <r_i_glide_einternal>  (304) 
9.09064

>  <r_i_glide_intrahb_reward>  (304) 
-0

>  <i_i_glide_confnum>  (304) 
4

>  <i_i_glide_posenum>  (304) 
9

>  <r_i_glide_eff_state_penalty>  (304) 
0

>  <ligand_id>  (304) 
86

>  <original_smiles>  (304) 
CC1=Nc2ncnn2C(c2cccs2)C1C(=O)Nc1ccccc1C(C)C

>  <smiles>  (304) 
[H]c1nc2n(n1)C([H])(c1sc([H])c([H])c1[H])C(=C([O-])N([H])c1c([H])c([H])c([H])c([H])c1C([H])(C([H])([H])[H])C([H])([H])[H])C(C([H])([H])[H])=N2

$$$$
86:1:0
     RDKit          3D

 48 51  0  0  1  0  0  0  0  0999 V2000
    4.8636   -9.0930    3.0246 C   0  0  0  0  0  0  0  0  0  0  0  0
    3.7175   -8.1908    2.5770 C   0  0  0  0  0  0  0  0  0  0  0  0
    2.4840   -8.7132    2.9460 N   0  0  0  0  0  0  0  0  0  0  0  0
    1.2955   -8.2143    2.4454 C   0  0  0  0  0  0  0  0  0  0  0  0
    0.0859   -8.7406    2.5170 N   0  0  0  0  0  0  0  0  0  0  0  0
   -0.6128   -7.7839    1.8391 C   0  0  0  0  0  0  0  0  0  0  0  0
    0.0798   -6.7214    1.4071 N   0  0  0  0  0  0  0  0  0  0  0  0
    1.3378   -7.0450    1.8060 N   0  0  0  0  0  0  0  0  0  0  0  0
    2.4979   -6.1811    1.6794 C   0  0  1  0  0  0  0  0  0  0  0  0
    2.3910   -5.0648    2.6918 C   0  0  0  0  0  0  0  0  0  0  0  0
    2.1183   -5.1811    4.0321 C   0  0  0  0  0  0  0  0  0  0  0  0
    2.0818   -3.9283    4.7133 C   0  0  0  0  0  0  0  0  0  0  0  0
    2.3340   -2.8708    3.8862 C   0  0  0  0  0  0  0  0  0  0  0  0
    2.6177   -3.3940    2.2553 S   0  0  0  0  0  0  0  0  0  0  0  0
    3.7972   -7.0008    1.9015 C   0  0  0  0  0  0  0  0  0  0  0  0
    5.0789   -6.5415    1.3273 C   0  0  0  0  0  0  0  0  0  0  0  0
    6.1222   -7.1921    1.2810 O   0  0  0  0  0  0  0  0  0  0  0  0
    4.9971   -5.3218    0.7619 N   0  0  0  0  0  0  0  0  0  0  0  0
    6.0504   -4.5370    0.2219 C   0  0  0  0  0  0  0  0  0  0  0  0
    7.3418   -4.5809    0.7994 C   0  0  0  0  0  0  0  0  0  0  0  0
    8.3839   -3.7893    0.2911 C   0  0  0  0  0  0  0  0  0  0  0  0
    8.1439   -2.9379   -0.7985 C   0  0  0  0  0  0  0  0  0  0  0  0
    6.8568   -2.8704   -1.3681 C   0  0  0  0  0  0  0  0  0  0  0  0
    5.7931   -3.6572   -0.8655 C   0  0  0  0  0  0  0  0  0  0  0  0
    4.3945   -3.5400   -1.4915 C   0  0  0  0  0  0  0  0  0  0  0  0
    4.3986   -3.5859   -3.0284 C   0  0  0  0  0  0  0  0  0  0  0  0
    3.6690   -2.2836   -0.9953 C   0  0  0  0  0  0  0  0  0  0  0  0
    5.7755   -8.5428    3.2603 H   0  0  0  0  0  0  0  0  0  0  0  0
    5.0864   -9.8557    2.2748 H   0  0  0  0  0  0  0  0  0  0  0  0
    4.5919   -9.6041    3.9507 H   0  0  0  0  0  0  0  0  0  0  0  0
   -1.6812   -7.8645    1.6803 H   0  0  0  0  0  0  0  0  0  0  0  0
    2.4643   -5.7914    0.6651 H   0  0  0  0  0  0  0  0  0  0  0  0
    1.9381   -6.1150    4.5502 H   0  0  0  0  0  0  0  0  0  0  0  0
    1.8741   -3.8507    5.7733 H   0  0  0  0  0  0  0  0  0  0  0  0
    2.3748   -1.8199    4.1360 H   0  0  0  0  0  0  0  0  0  0  0  0
    2.4341   -9.6229    3.3823 H   0  0  0  0  0  0  0  0  0  0  0  0
    4.0710   -4.9445    0.6615 H   0  0  0  0  0  0  0  0  0  0  0  0
    7.5472   -5.2157    1.6500 H   0  0  0  0  0  0  0  0  0  0  0  0
    9.3606   -3.8379    0.7479 H   0  0  0  0  0  0  0  0  0  0  0  0
    8.9544   -2.3447   -1.1899 H   0  0  0  0  0  0  0  0  0  0  0  0
    6.6772   -2.2124   -2.2012 H   0  0  0  0  0  0  0  0  0  0  0  0
    3.7904   -4.3935   -1.1847 H   0  0  0  0  0  0  0  0  0  0  0  0
    4.9505   -4.4503   -3.3989 H   0  0  0  0  0  0  0  0  0  0  0  0
    4.8288   -2.6858   -3.4660 H   0  0  0  0  0  0  0  0  0  0  0  0
    3.3764   -3.6709   -3.3969 H   0  0  0  0  0  0  0  0  0  0  0  0
    3.6917   -2.2250    0.0880 H   0  0  0  0  0  0  0  0  0  0  0  0
    2.6241   -2.2852   -1.3063 H   0  0  0  0  0  0  0  0  0  0  0  0
    4.1322   -1.3717   -1.3657 H   0  0  0  0  0  0  0  0  0  0  0  0
  1 28  1  0
  1 29  1  0
  1 30  1  0
  1  2  1  0
  2 15  2  0
  2  3  1  0
  3  4  1  0
  3 36  1  0
  4  8  1  0
  4  5  2  0
  5  6  1  0
  6  7  2  0
  6 31  1  0
  7  8  1  0
  8  9  1  0
  9 10  1  0
  9 32  1  6
  9 15  1  0
 10 14  1  0
 10 11  2  0
 11 12  1  0
 11 33  1  0
 12 13  2  0
 12 34  1  0
 13 14  1  0
 13 35  1  0
 15 16  1  0
 16 17  2  0
 16 18  1  0
 18 19  1  0
 18 37  1  0
 19 24  1  0
 19 20  2  0
 20 21  1  0
 20 38  1  0
 21 22  2  0
 21 39  1  0
 22 23  1  0
 22 40  1  0
 23 24  2  0
 23 41  1  0
 24 25  1  0
 25 26  1  0
 25 27  1  0
 25 42  1  0
 26 43  1  0
 26 44  1  0
 26 45  1  0
 27 46  1  0
 27 47  1  0
 27 48  1  0
M  END
>  <i_m_ct_stereo_status>  (305) 
1

>  <s_m_source_file>  (305) 
/var/tmp/pbs.5083858.sched01/tmppqcd7fte/125e55c3yqz.sdf

>  <i_m_source_file_index>  (305) 
1

>  <i_lp_mmshare_version>  (305) 
48012

>  <i_f3d_flags>  (305) 
0

>  <s_epik_input>  (305) 
czFbY0hdW2NIXVtjSF1jMVtDQEhdKG4oYzIzKW5bY0hdbjMpW0NASF0oQyg9TjIpW0NIM10pQyg9TylbTkhdYzRbY0hdW2NIXVtjSF1bY0hdYzRbQ0hdKFtDSDNdKVtDSDNd

>  <s_epik_cmdline>  (305) 
J2VwaWtfcHl0aG9uJywgJy1waHQnLCAnMi4wJywgJy1waCcsICc3LjAnLCAnLXRuJywgJzgnLCAnLW1hJywgJzIwMCcsICctaW1hZScsICc8aW5maWxlLm1hZT4nLCAnLW9tYWUnLCAnPG91dGZpbGUubWFlPic=

>  <r_lp_tautomer_probability>  (305) 
1

>  <r_epik_Ionization_Penalty>  (305) 
0.0155902

>  <r_epik_Ionization_Penalty_Charging>  (305) 
0

>  <r_epik_Ionization_Penalty_Neutral>  (305) 
0.0155902

>  <r_epik_State_Penalty>  (305) 
1.83971

>  <r_epik_Charging_Adjusted_Penalty>  (305) 
1.83971

>  <i_epik_Tot_Q>  (305) 
0

>  <i_epik_Tot_abs_Q>  (305) 
0

>  <s_lp_Force_Field>  (305) 
OPLS3e

>  <r_lp_Energy>  (305) 
43.6813

>  <b_lp_Chiralities_Consistent>  (305) 
1

>  <s_lp_Variant>  (305) 
86:0-2

>  <s_i_glide_gridfile>  (305) 
pfpi4k_grid

>  <i_i_glide_lignum>  (305) 
1

>  <i_i_glide_rotatable_bonds>  (305) 
5

>  <r_i_docking_score>  (305) 
-3.17606

>  <r_i_glide_ligand_efficiency>  (305) 
-0.117632

>  <r_i_glide_ligand_efficiency_sa>  (305) 
-0.352895

>  <r_i_glide_ligand_efficiency_ln>  (305) 
-0.739334

>  <r_i_glide_gscore>  (305) 
-3.17606

>  <r_i_glide_lipo>  (305) 
-0.495997

>  <r_i_glide_hbond>  (305) 
-0.120408

>  <r_i_glide_metal>  (305) 
-0

>  <r_i_glide_rewards>  (305) 
-0.939421

>  <r_i_glide_evdw>  (305) 
-31.6124

>  <r_i_glide_ecoul>  (305) 
-2.81692

>  <r_i_glide_erotb>  (305) 
0.538601

>  <r_i_glide_esite>  (305) 
-0.155672

>  <r_i_glide_emodel>  (305) 
-39.4649

>  <r_i_glide_energy>  (305) 
-34.4294

>  <r_i_glide_einternal>  (305) 
2.87178

>  <r_i_glide_intrahb_reward>  (305) 
-0

>  <i_i_glide_confnum>  (305) 
1

>  <i_i_glide_posenum>  (305) 
17

>  <r_i_glide_eff_state_penalty>  (305) 
0

>  <ligand_id>  (305) 
86

>  <original_smiles>  (305) 
CC1=Nc2ncnn2C(c2cccs2)C1C(=O)Nc1ccccc1C(C)C

>  <smiles>  (305) 
[H]c1nc2n(n1)C([H])(c1sc([H])c([H])c1[H])C(C(=O)N([H])c1c([H])c([H])c([H])c([H])c1C([H])(C([H])([H])[H])C([H])([H])[H])=C(C([H])([H])[H])N2[H]

$$$$
86:1:1
     RDKit          3D

 48 51  0  0  1  0  0  0  0  0999 V2000
    4.8464   -7.4225    1.1054 C   0  0  0  0  0  0  0  0  0  0  0  0
    3.4352   -7.6859    1.6490 C   0  0  0  0  0  0  0  0  0  0  0  0
    3.3874   -8.8616    2.3920 N   0  0  0  0  0  0  0  0  0  0  0  0
    2.1830   -9.4589    2.7476 C   0  0  0  0  0  0  0  0  0  0  0  0
    1.9790  -10.6758    3.2198 N   0  0  0  0  0  0  0  0  0  0  0  0
    0.6138  -10.6455    3.3308 C   0  0  0  0  0  0  0  0  0  0  0  0
    0.0088   -9.5222    2.9407 N   0  0  0  0  0  0  0  0  0  0  0  0
    1.0664   -8.7498    2.5806 N   0  0  0  0  0  0  0  0  0  0  0  0
    0.9809   -7.3542    2.1860 C   0  0  1  0  0  0  0  0  0  0  0  0
    0.7475   -6.4676    3.3993 C   0  0  0  0  0  0  0  0  0  0  0  0
    1.4919   -5.3872    3.8143 C   0  0  0  0  0  0  0  0  0  0  0  0
    1.0232   -4.8041    5.0246 C   0  0  0  0  0  0  0  0  0  0  0  0
   -0.0780   -5.4384    5.5232 C   0  0  0  0  0  0  0  0  0  0  0  0
   -0.5837   -6.7493    4.5053 S   0  0  0  0  0  0  0  0  0  0  0  0
    2.2860   -6.9598    1.4501 C   0  0  0  0  0  0  0  0  0  0  0  0
    2.1699   -5.8518    0.5003 C   0  0  0  0  0  0  0  0  0  0  0  0
    1.1771   -5.7039   -0.2138 O   0  0  0  0  0  0  0  0  0  0  0  0
    3.2206   -5.0073    0.5247 N   0  0  0  0  0  0  0  0  0  0  0  0
    3.4640   -3.7821   -0.1666 C   0  0  0  0  0  0  0  0  0  0  0  0
    2.7788   -3.4504   -1.3581 C   0  0  0  0  0  0  0  0  0  0  0  0
    3.0390   -2.2555   -2.0431 C   0  0  0  0  0  0  0  0  0  0  0  0
    3.9906   -1.3584   -1.5337 C   0  0  0  0  0  0  0  0  0  0  0  0
    4.7064   -1.6801   -0.3633 C   0  0  0  0  0  0  0  0  0  0  0  0
    4.4621   -2.8926    0.3313 C   0  0  0  0  0  0  0  0  0  0  0  0
    5.2976   -3.2342    1.5794 C   0  0  0  0  0  0  0  0  0  0  0  0
    5.3676   -2.0897    2.6046 C   0  0  0  0  0  0  0  0  0  0  0  0
    6.7083   -3.7166    1.1985 C   0  0  0  0  0  0  0  0  0  0  0  0
    5.1308   -6.3754    1.0089 H   0  0  0  0  0  0  0  0  0  0  0  0
    4.9935   -7.9199    0.1452 H   0  0  0  0  0  0  0  0  0  0  0  0
    5.5700   -7.8440    1.8069 H   0  0  0  0  0  0  0  0  0  0  0  0
    0.0524  -11.4766    3.7271 H   0  0  0  0  0  0  0  0  0  0  0  0
    0.1413   -7.2780    1.5032 H   0  0  0  0  0  0  0  0  0  0  0  0
    2.3717   -5.0008    3.3174 H   0  0  0  0  0  0  0  0  0  0  0  0
    1.5198   -3.9607    5.4806 H   0  0  0  0  0  0  0  0  0  0  0  0
   -0.6200   -5.2101    6.4271 H   0  0  0  0  0  0  0  0  0  0  0  0
    4.2002   -9.4570    2.4340 H   0  0  0  0  0  0  0  0  0  0  0  0
    3.9533   -5.2834    1.1642 H   0  0  0  0  0  0  0  0  0  0  0  0
    2.0661   -4.1326   -1.8005 H   0  0  0  0  0  0  0  0  0  0  0  0
    2.4794   -2.0294   -2.9374 H   0  0  0  0  0  0  0  0  0  0  0  0
    4.1538   -0.4161   -2.0345 H   0  0  0  0  0  0  0  0  0  0  0  0
    5.4334   -0.9781    0.0162 H   0  0  0  0  0  0  0  0  0  0  0  0
    4.8335   -4.0560    2.1259 H   0  0  0  0  0  0  0  0  0  0  0  0
    4.3702   -1.7142    2.8414 H   0  0  0  0  0  0  0  0  0  0  0  0
    5.9700   -1.2531    2.2494 H   0  0  0  0  0  0  0  0  0  0  0  0
    5.8164   -2.4394    3.5333 H   0  0  0  0  0  0  0  0  0  0  0  0
    6.6710   -4.5266    0.4702 H   0  0  0  0  0  0  0  0  0  0  0  0
    7.2408   -4.0987    2.0689 H   0  0  0  0  0  0  0  0  0  0  0  0
    7.3035   -2.9104    0.7691 H   0  0  0  0  0  0  0  0  0  0  0  0
  1 28  1  0
  1 29  1  0
  1 30  1  0
  1  2  1  0
  2 15  2  0
  2  3  1  0
  3  4  1  0
  3 36  1  0
  4  8  1  0
  4  5  2  0
  5  6  1  0
  6  7  2  0
  6 31  1  0
  7  8  1  0
  8  9  1  0
  9 10  1  0
  9 32  1  6
  9 15  1  0
 10 14  1  0
 10 11  2  0
 11 12  1  0
 11 33  1  0
 12 13  2  0
 12 34  1  0
 13 14  1  0
 13 35  1  0
 15 16  1  0
 16 17  2  0
 16 18  1  0
 18 19  1  0
 18 37  1  0
 19 24  1  0
 19 20  2  0
 20 21  1  0
 20 38  1  0
 21 22  2  0
 21 39  1  0
 22 23  1  0
 22 40  1  0
 23 24  2  0
 23 41  1  0
 24 25  1  0
 25 26  1  0
 25 27  1  0
 25 42  1  0
 26 43  1  0
 26 44  1  0
 26 45  1  0
 27 46  1  0
 27 47  1  0
 27 48  1  0
M  END
>  <i_m_ct_stereo_status>  (306) 
1

>  <s_m_source_file>  (306) 
/var/tmp/pbs.5083858.sched01/tmppqcd7fte/125e55c3yqz.sdf

>  <i_m_source_file_index>  (306) 
1

>  <i_lp_mmshare_version>  (306) 
48012

>  <i_f3d_flags>  (306) 
0

>  <s_epik_input>  (306) 
czFbY0hdW2NIXVtjSF1jMVtDQEhdKG4oYzIzKW5bY0hdbjMpW0NASF0oQyg9TjIpW0NIM10pQyg9TylbTkhdYzRbY0hdW2NIXVtjSF1bY0hdYzRbQ0hdKFtDSDNdKVtDSDNd

>  <s_epik_cmdline>  (306) 
J2VwaWtfcHl0aG9uJywgJy1waHQnLCAnMi4wJywgJy1waCcsICc3LjAnLCAnLXRuJywgJzgnLCAnLW1hJywgJzIwMCcsICctaW1hZScsICc8aW5maWxlLm1hZT4nLCAnLW9tYWUnLCAnPG91dGZpbGUubWFlPic=

>  <r_lp_tautomer_probability>  (306) 
1

>  <r_epik_Ionization_Penalty>  (306) 
0.0155902

>  <r_epik_Ionization_Penalty_Charging>  (306) 
0

>  <r_epik_Ionization_Penalty_Neutral>  (306) 
0.0155902

>  <r_epik_State_Penalty>  (306) 
1.83971

>  <r_epik_Charging_Adjusted_Penalty>  (306) 
1.83971

>  <i_epik_Tot_Q>  (306) 
0

>  <i_epik_Tot_abs_Q>  (306) 
0

>  <s_lp_Force_Field>  (306) 
OPLS3e

>  <r_lp_Energy>  (306) 
43.6813

>  <b_lp_Chiralities_Consistent>  (306) 
1

>  <s_lp_Variant>  (306) 
86:0-2

>  <s_i_glide_gridfile>  (306) 
pfpi4k_grid

>  <i_i_glide_lignum>  (306) 
1

>  <i_i_glide_rotatable_bonds>  (306) 
5

>  <r_i_docking_score>  (306) 
-3.12074

>  <r_i_glide_ligand_efficiency>  (306) 
-0.115583

>  <r_i_glide_ligand_efficiency_sa>  (306) 
-0.346749

>  <r_i_glide_ligand_efficiency_ln>  (306) 
-0.726458

>  <r_i_glide_gscore>  (306) 
-3.12074

>  <r_i_glide_lipo>  (306) 
-0.374487

>  <r_i_glide_hbond>  (306) 
-0.430009

>  <r_i_glide_metal>  (306) 
-0

>  <r_i_glide_rewards>  (306) 
-0.91915

>  <r_i_glide_evdw>  (306) 
-30.7956

>  <r_i_glide_ecoul>  (306) 
-2.05169

>  <r_i_glide_erotb>  (306) 
0.538601

>  <r_i_glide_esite>  (306) 
-0.0881665

>  <r_i_glide_emodel>  (306) 
-38.1165

>  <r_i_glide_energy>  (306) 
-32.8473

>  <r_i_glide_einternal>  (306) 
1.37601

>  <r_i_glide_intrahb_reward>  (306) 
-0

>  <i_i_glide_confnum>  (306) 
2

>  <i_i_glide_posenum>  (306) 
26

>  <r_i_glide_eff_state_penalty>  (306) 
0

>  <ligand_id>  (306) 
86

>  <original_smiles>  (306) 
CC1=Nc2ncnn2C(c2cccs2)C1C(=O)Nc1ccccc1C(C)C

>  <smiles>  (306) 
[H]c1nc2n(n1)C([H])(c1sc([H])c([H])c1[H])C(C(=O)N([H])c1c([H])c([H])c([H])c([H])c1C([H])(C([H])([H])[H])C([H])([H])[H])=C(C([H])([H])[H])N2[H]

$$$$
86:1:2
     RDKit          3D

 48 51  0  0  1  0  0  0  0  0999 V2000
    4.7290   -7.9263    1.0570 C   0  0  0  0  0  0  0  0  0  0  0  0
    3.3780   -8.1533    1.7470 C   0  0  0  0  0  0  0  0  0  0  0  0
    3.3574   -9.3686    2.4264 N   0  0  0  0  0  0  0  0  0  0  0  0
    2.1791   -9.9241    2.9032 C   0  0  0  0  0  0  0  0  0  0  0  0
    1.9653  -11.1557    3.3279 N   0  0  0  0  0  0  0  0  0  0  0  0
    0.6332  -11.0551    3.6304 C   0  0  0  0  0  0  0  0  0  0  0  0
    0.0538   -9.8749    3.3896 N   0  0  0  0  0  0  0  0  0  0  0  0
    1.0947   -9.1484    2.9265 N   0  0  0  0  0  0  0  0  0  0  0  0
    1.0360   -7.7371    2.6179 C   0  0  1  0  0  0  0  0  0  0  0  0
    0.9867   -6.9363    3.9042 C   0  0  0  0  0  0  0  0  0  0  0  0
   -0.1066   -6.6951    4.7009 C   0  0  0  0  0  0  0  0  0  0  0  0
    0.2036   -5.9429    5.8715 C   0  0  0  0  0  0  0  0  0  0  0  0
    1.5282   -5.6185    5.9607 C   0  0  0  0  0  0  0  0  0  0  0  0
    2.4295   -6.2355    4.6159 S   0  0  0  0  0  0  0  0  0  0  0  0
    2.2500   -7.3589    1.7404 C   0  0  0  0  0  0  0  0  0  0  0  0
    2.0798   -6.1723    0.9050 C   0  0  0  0  0  0  0  0  0  0  0  0
    1.0161   -5.8859    0.3549 O   0  0  0  0  0  0  0  0  0  0  0  0
    3.1699   -5.4001    0.8414 N   0  0  0  0  0  0  0  0  0  0  0  0
    3.4180   -4.1889    0.1372 C   0  0  0  0  0  0  0  0  0  0  0  0
    2.6583   -3.8319   -0.9986 C   0  0  0  0  0  0  0  0  0  0  0  0
    2.9317   -2.6476   -1.6995 C   0  0  0  0  0  0  0  0  0  0  0  0
    3.9396   -1.7799   -1.2542 C   0  0  0  0  0  0  0  0  0  0  0  0
    4.7300   -2.1403   -0.1444 C   0  0  0  0  0  0  0  0  0  0  0  0
    4.4947   -3.3530    0.5538 C   0  0  0  0  0  0  0  0  0  0  0  0
    5.4251   -3.7467    1.7143 C   0  0  0  0  0  0  0  0  0  0  0  0
    5.2739   -2.8286    2.9361 C   0  0  0  0  0  0  0  0  0  0  0  0
    6.8918   -3.8419    1.2642 C   0  0  0  0  0  0  0  0  0  0  0  0
    5.0620   -6.8926    0.9848 H   0  0  0  0  0  0  0  0  0  0  0  0
    4.7371   -8.3747    0.0647 H   0  0  0  0  0  0  0  0  0  0  0  0
    5.5031   -8.4235    1.6461 H   0  0  0  0  0  0  0  0  0  0  0  0
    0.0748  -11.8815    4.0469 H   0  0  0  0  0  0  0  0  0  0  0  0
    0.1239   -7.5836    2.0478 H   0  0  0  0  0  0  0  0  0  0  0  0
   -1.1090   -7.0528    4.5009 H   0  0  0  0  0  0  0  0  0  0  0  0
   -0.5427   -5.6814    6.6059 H   0  0  0  0  0  0  0  0  0  0  0  0
    2.0318   -5.0706    6.7401 H   0  0  0  0  0  0  0  0  0  0  0  0
    4.1318  -10.0102    2.3339 H   0  0  0  0  0  0  0  0  0  0  0  0
    3.9490   -5.7465    1.3796 H   0  0  0  0  0  0  0  0  0  0  0  0
    1.8686   -4.4620   -1.3842 H   0  0  0  0  0  0  0  0  0  0  0  0
    2.3043   -2.3753   -2.5346 H   0  0  0  0  0  0  0  0  0  0  0  0
    4.0922   -0.8379   -1.7554 H   0  0  0  0  0  0  0  0  0  0  0  0
    5.5143   -1.4762    0.1827 H   0  0  0  0  0  0  0  0  0  0  0  0
    5.1821   -4.7460    2.0769 H   0  0  0  0  0  0  0  0  0  0  0  0
    4.2261   -2.7255    3.2264 H   0  0  0  0  0  0  0  0  0  0  0  0
    5.6730   -1.8309    2.7478 H   0  0  0  0  0  0  0  0  0  0  0  0
    5.8100   -3.2438    3.7884 H   0  0  0  0  0  0  0  0  0  0  0  0
    6.9957   -4.4927    0.3956 H   0  0  0  0  0  0  0  0  0  0  0  0
    7.5151   -4.2609    2.0538 H   0  0  0  0  0  0  0  0  0  0  0  0
    7.2998   -2.8656    1.0046 H   0  0  0  0  0  0  0  0  0  0  0  0
  1 28  1  0
  1 29  1  0
  1 30  1  0
  1  2  1  0
  2 15  2  0
  2  3  1  0
  3  4  1  0
  3 36  1  0
  4  8  1  0
  4  5  2  0
  5  6  1  0
  6  7  2  0
  6 31  1  0
  7  8  1  0
  8  9  1  0
  9 10  1  0
  9 32  1  6
  9 15  1  0
 10 14  1  0
 10 11  2  0
 11 12  1  0
 11 33  1  0
 12 13  2  0
 12 34  1  0
 13 14  1  0
 13 35  1  0
 15 16  1  0
 16 17  2  0
 16 18  1  0
 18 19  1  0
 18 37  1  0
 19 24  1  0
 19 20  2  0
 20 21  1  0
 20 38  1  0
 21 22  2  0
 21 39  1  0
 22 23  1  0
 22 40  1  0
 23 24  2  0
 23 41  1  0
 24 25  1  0
 25 26  1  0
 25 27  1  0
 25 42  1  0
 26 43  1  0
 26 44  1  0
 26 45  1  0
 27 46  1  0
 27 47  1  0
 27 48  1  0
M  END
>  <i_m_ct_stereo_status>  (307) 
1

>  <s_m_source_file>  (307) 
/var/tmp/pbs.5083858.sched01/tmppqcd7fte/125e55c3yqz.sdf

>  <i_m_source_file_index>  (307) 
1

>  <i_lp_mmshare_version>  (307) 
48012

>  <i_f3d_flags>  (307) 
0

>  <s_epik_input>  (307) 
czFbY0hdW2NIXVtjSF1jMVtDQEhdKG4oYzIzKW5bY0hdbjMpW0NASF0oQyg9TjIpW0NIM10pQyg9TylbTkhdYzRbY0hdW2NIXVtjSF1bY0hdYzRbQ0hdKFtDSDNdKVtDSDNd

>  <s_epik_cmdline>  (307) 
J2VwaWtfcHl0aG9uJywgJy1waHQnLCAnMi4wJywgJy1waCcsICc3LjAnLCAnLXRuJywgJzgnLCAnLW1hJywgJzIwMCcsICctaW1hZScsICc8aW5maWxlLm1hZT4nLCAnLW9tYWUnLCAnPG91dGZpbGUubWFlPic=

>  <r_lp_tautomer_probability>  (307) 
1

>  <r_epik_Ionization_Penalty>  (307) 
0.0155902

>  <r_epik_Ionization_Penalty_Charging>  (307) 
0

>  <r_epik_Ionization_Penalty_Neutral>  (307) 
0.0155902

>  <r_epik_State_Penalty>  (307) 
1.83971

>  <r_epik_Charging_Adjusted_Penalty>  (307) 
1.83971

>  <i_epik_Tot_Q>  (307) 
0

>  <i_epik_Tot_abs_Q>  (307) 
0

>  <s_lp_Force_Field>  (307) 
OPLS3e

>  <r_lp_Energy>  (307) 
43.6813

>  <b_lp_Chiralities_Consistent>  (307) 
1

>  <s_lp_Variant>  (307) 
86:0-2

>  <s_i_glide_gridfile>  (307) 
pfpi4k_grid

>  <i_i_glide_lignum>  (307) 
1

>  <i_i_glide_rotatable_bonds>  (307) 
5

>  <r_i_docking_score>  (307) 
-2.74071

>  <r_i_glide_ligand_efficiency>  (307) 
-0.101508

>  <r_i_glide_ligand_efficiency_sa>  (307) 
-0.304524

>  <r_i_glide_ligand_efficiency_ln>  (307) 
-0.637993

>  <r_i_glide_gscore>  (307) 
-2.74071

>  <r_i_glide_lipo>  (307) 
-0.233571

>  <r_i_glide_hbond>  (307) 
-0.200069

>  <r_i_glide_metal>  (307) 
-0

>  <r_i_glide_rewards>  (307) 
-0.927378

>  <r_i_glide_evdw>  (307) 
-28.7968

>  <r_i_glide_ecoul>  (307) 
-2.68472

>  <r_i_glide_erotb>  (307) 
0.538601

>  <r_i_glide_esite>  (307) 
-0.0757482

>  <r_i_glide_emodel>  (307) 
-36.0894

>  <r_i_glide_energy>  (307) 
-31.4815

>  <r_i_glide_einternal>  (307) 
1.14225

>  <r_i_glide_intrahb_reward>  (307) 
-0

>  <i_i_glide_confnum>  (307) 
2

>  <i_i_glide_posenum>  (307) 
40

>  <r_i_glide_eff_state_penalty>  (307) 
0

>  <ligand_id>  (307) 
86

>  <original_smiles>  (307) 
CC1=Nc2ncnn2C(c2cccs2)C1C(=O)Nc1ccccc1C(C)C

>  <smiles>  (307) 
[H]c1nc2n(n1)C([H])(c1sc([H])c([H])c1[H])C(C(=O)N([H])c1c([H])c([H])c([H])c([H])c1C([H])(C([H])([H])[H])C([H])([H])[H])=C(C([H])([H])[H])N2[H]

$$$$
88:0:0
     RDKit          3D

 77 83  0  0  1  0  0  0  0  0999 V2000
    5.9610   -2.8022   -2.3682 C   0  0  0  0  0  0  0  0  0  0  0  0
    4.7394   -2.1112   -1.7237 C   0  0  0  0  0  0  0  0  0  0  0  0
    5.0483   -0.6178   -1.8855 C   0  0  0  0  0  0  0  0  0  0  0  0
    3.4436   -2.2791   -2.6698 C   0  0  0  0  0  0  0  0  0  0  0  0
    2.2739   -3.3390   -2.4814 C   0  0  0  0  0  0  0  0  0  0  0  0
    1.7571   -3.7746   -1.0524 C   0  0  1  0  0  0  0  0  0  0  0  0
    1.0983   -5.0379   -1.1264 O   0  0  0  0  0  0  0  0  0  0  0  0
    2.8799   -3.7630    0.0126 C   0  0  2  0  0  0  0  0  0  0  0  0
    4.0887   -4.6768   -0.6845 C   0  0  0  0  0  0  0  0  0  0  0  0
    5.4636   -4.3379   -0.2669 O   0  0  0  0  0  0  0  0  0  0  0  0
    5.2201   -3.5477    0.8391 C   0  0  2  0  0  0  0  0  0  0  0  0
    5.8253   -2.6614    1.8880 C   0  0  0  0  0  0  0  0  0  0  0  0
    4.5912   -2.2191    2.8063 C   0  0  1  0  0  0  0  0  0  0  0  0
    4.4155   -0.8200    2.6297 O   0  0  0  0  0  0  0  0  0  0  0  0
    3.1543   -3.0479    2.9020 C   0  0  2  0  0  0  0  0  0  0  0  0
    2.0348   -1.9520    3.2186 C   0  0  0  0  0  0  0  0  0  0  0  0
    0.7051   -2.4069    3.2754 O   0  0  0  0  0  0  0  0  0  0  0  0
    3.2695   -3.8093    4.3265 C   0  0  1  0  0  0  0  0  0  0  0  0
    2.0725   -4.6341    4.9463 C   0  0  0  0  0  0  0  0  0  0  0  0
    1.9245   -6.1756    4.7193 C   0  0  0  0  0  0  0  0  0  0  0  0
    3.1267   -7.1162    5.0364 C   0  0  0  0  0  0  0  0  0  0  0  0
    4.0450   -7.6041    3.8508 C   0  0  0  0  0  0  0  0  0  0  0  0
    5.4612   -6.9624    3.5725 C   0  0  2  0  0  0  0  0  0  0  0  0
    6.2279   -6.7943    4.8814 C   0  0  0  0  0  0  0  0  0  0  0  0
    6.6631   -7.7627    5.5153 O   0  0  0  0  0  0  0  0  0  0  0  0
    6.3326   -5.4948    5.1854 O   0  0  0  0  0  0  0  0  0  0  0  0
    5.6603   -4.7180    4.2449 C   0  0  2  0  0  0  0  0  0  0  0  0
    4.3309   -4.7014    4.6510 O   0  0  0  0  0  0  0  0  0  0  0  0
    5.7331   -5.5450    2.9256 C   0  0  1  0  0  0  0  0  0  0  0  0
    7.2274   -5.6070    2.4136 C   0  0  0  0  0  0  0  0  0  0  0  0
    4.8457   -4.9536    1.7285 C   0  0  1  0  0  0  0  0  0  0  0  0
    3.3711   -5.2874    1.8312 C   0  0  0  0  0  0  0  0  0  0  0  0
    2.6448   -4.0168    1.6226 C   0  0  2  0  0  0  0  0  0  0  0  0
    4.5759   -2.3209   -0.1260 C   0  0  2  0  0  0  0  0  0  0  0  0
    3.1539   -2.2887    0.0562 C   0  0  0  0  0  0  0  0  0  0  0  0
    6.1014   -2.3936   -3.3360 H   0  0  0  0  0  0  0  0  0  0  0  0
    5.8423   -3.8618   -2.5948 H   0  0  0  0  0  0  0  0  0  0  0  0
    6.8691   -2.6900   -1.7718 H   0  0  0  0  0  0  0  0  0  0  0  0
    4.2813    0.0202   -1.4505 H   0  0  0  0  0  0  0  0  0  0  0  0
    5.0991   -0.3281   -2.9315 H   0  0  0  0  0  0  0  0  0  0  0  0
    5.9647   -0.3686   -1.3674 H   0  0  0  0  0  0  0  0  0  0  0  0
    2.9250   -1.3172   -2.7089 H   0  0  0  0  0  0  0  0  0  0  0  0
    3.7909   -2.3847   -3.7008 H   0  0  0  0  0  0  0  0  0  0  0  0
    1.4088   -2.9162   -2.9904 H   0  0  0  0  0  0  0  0  0  0  0  0
    2.4913   -4.1998   -3.1164 H   0  0  0  0  0  0  0  0  0  0  0  0
    1.0147   -3.0541   -0.7863 H   0  0  0  0  0  0  0  0  0  0  0  0
    1.6841   -5.5734   -1.6673 H   0  0  0  0  0  0  0  0  0  0  0  0
    3.9014   -5.7502   -0.6238 H   0  0  0  0  0  0  0  0  0  0  0  0
    4.1704   -4.6027   -1.7573 H   0  0  0  0  0  0  0  0  0  0  0  0
    6.6014   -3.1778    2.3702 H   0  0  0  0  0  0  0  0  0  0  0  0
    6.3778   -1.8066    1.4962 H   0  0  0  0  0  0  0  0  0  0  0  0
    5.0002   -2.1731    3.8109 H   0  0  0  0  0  0  0  0  0  0  0  0
    3.9226   -0.4730    3.3450 H   0  0  0  0  0  0  0  0  0  0  0  0
    2.2346   -1.4694    4.1766 H   0  0  0  0  0  0  0  0  0  0  0  0
    1.9657   -1.1164    2.5301 H   0  0  0  0  0  0  0  0  0  0  0  0
    0.4705   -2.7548    2.4359 H   0  0  0  0  0  0  0  0  0  0  0  0
    3.4314   -3.0134    5.0522 H   0  0  0  0  0  0  0  0  0  0  0  0
    2.1445   -4.4973    6.0278 H   0  0  0  0  0  0  0  0  0  0  0  0
    1.0993   -4.2296    4.7180 H   0  0  0  0  0  0  0  0  0  0  0  0
    1.1267   -6.4719    5.4005 H   0  0  0  0  0  0  0  0  0  0  0  0
    1.4960   -6.4022    3.7433 H   0  0  0  0  0  0  0  0  0  0  0  0
    3.6930   -6.7398    5.8857 H   0  0  0  0  0  0  0  0  0  0  0  0
    2.6672   -8.0251    5.4302 H   0  0  0  0  0  0  0  0  0  0  0  0
    4.2866   -8.6348    4.1235 H   0  0  0  0  0  0  0  0  0  0  0  0
    3.4786   -7.7478    2.9371 H   0  0  0  0  0  0  0  0  0  0  0  0
    5.9971   -7.7002    2.9821 H   0  0  0  0  0  0  0  0  0  0  0  0
    6.1344   -3.7506    4.2639 H   0  0  0  0  0  0  0  0  0  0  0  0
    7.5086   -4.8321    1.7038 H   0  0  0  0  0  0  0  0  0  0  0  0
    7.4090   -6.5260    1.8577 H   0  0  0  0  0  0  0  0  0  0  0  0
    7.9683   -5.5692    3.2139 H   0  0  0  0  0  0  0  0  0  0  0  0
    5.1577   -5.8235    1.1364 H   0  0  0  0  0  0  0  0  0  0  0  0
    3.0196   -6.0940    1.1924 H   0  0  0  0  0  0  0  0  0  0  0  0
    3.1664   -5.6559    2.7876 H   0  0  0  0  0  0  0  0  0  0  0  0
    1.6009   -4.2581    1.7888 H   0  0  0  0  0  0  0  0  0  0  0  0
    4.8742   -1.3463    0.2599 H   0  0  0  0  0  0  0  0  0  0  0  0
    2.6097   -1.6197   -0.5970 H   0  0  0  0  0  0  0  0  0  0  0  0
    2.9145   -1.7525    0.9324 H   0  0  0  0  0  0  0  0  0  0  0  0
  1  2  1  0
  1 36  1  0
  1 37  1  0
  1 38  1  0
  2 34  1  0
  2  3  1  0
  2  4  1  0
  3 39  1  0
  3 40  1  0
  3 41  1  0
  4  5  1  0
  4 42  1  0
  4 43  1  0
  5  6  1  0
  5 44  1  0
  5 45  1  0
  6  7  1  0
  6  8  1  0
  6 46  1  1
  7 47  1  0
  8 33  1  0
  8 35  1  0
  8  9  1  6
  9 10  1  0
  9 48  1  0
  9 49  1  0
 10 11  1  0
 11 31  1  0
 11 12  1  1
 11 34  1  0
 12 13  1  0
 12 50  1  0
 12 51  1  0
 13 14  1  0
 13 15  1  0
 13 52  1  1
 14 53  1  0
 15 33  1  0
 15 16  1  1
 15 18  1  0
 16 17  1  0
 16 54  1  0
 16 55  1  0
 17 56  1  0
 18 28  1  0
 18 19  1  0
 18 57  1  1
 19 20  1  0
 19 58  1  0
 19 59  1  0
 20 21  1  0
 20 60  1  0
 20 61  1  0
 21 22  1  0
 21 62  1  0
 21 63  1  0
 22 23  1  0
 22 64  1  0
 22 65  1  0
 23 29  1  0
 23 24  1  0
 23 66  1  6
 24 25  2  0
 24 26  1  0
 26 27  1  0
 27 28  1  0
 27 29  1  0
 27 67  1  6
 29 30  1  6
 29 31  1  0
 30 68  1  0
 30 69  1  0
 30 70  1  0
 31 32  1  0
 31 71  1  6
 32 33  1  0
 32 72  1  0
 32 73  1  0
 33 74  1  6
 34 35  1  0
 34 75  1  1
 35 76  1  0
 35 77  1  0
M  END
>  <i_m_ct_stereo_status>  (308) 
1

>  <s_m_source_file>  (308) 
/var/tmp/pbs.5083858.sched01/tmppqcd7fte/125e55c3yqz.sdf

>  <i_m_source_file_index>  (308) 
3

>  <i_lp_mmshare_version>  (308) 
48012

>  <i_f3d_flags>  (308) 
0

>  <s_epik_input>  (308) 
W09IXVtDQEBIXTFbQ0gyXVtDSDJdQyhbQ0gzXSkoW0NIM10pW0NAQEhdKFtDSDJdMilbQ0BAXShPW0NIMl0zKShbQ0gyXVtDQEhdNFtPSF0pW0NASF0oW0NIMl01KVtDQEBdKFtDSDNdKShbQ0BASF0oTzYpT0M3PU8pW0NAQEhdN1tDSDJdW0NIMl1bQ0gyXVtDSDJdW0NAQEhdNltDQEBdNChbQ0BIXTVbQ0BAXTEyMylbQ0gyXVtPSF0=

>  <s_epik_cmdline>  (308) 
J2VwaWtfcHl0aG9uJywgJy1waHQnLCAnMi4wJywgJy1waCcsICc3LjAnLCAnLXRuJywgJzgnLCAnLW1hJywgJzIwMCcsICctaW1hZScsICc8aW5maWxlLm1hZT4nLCAnLW9tYWUnLCAnPG91dGZpbGUubWFlPic=

>  <r_lp_tautomer_probability>  (308) 
1

>  <r_epik_Ionization_Penalty>  (308) 
8.83664e-07

>  <r_epik_Ionization_Penalty_Charging>  (308) 
0

>  <r_epik_Ionization_Penalty_Neutral>  (308) 
8.83664e-07

>  <r_epik_State_Penalty>  (308) 
-0

>  <r_epik_Charging_Adjusted_Penalty>  (308) 
0

>  <i_epik_Tot_Q>  (308) 
0

>  <i_epik_Tot_abs_Q>  (308) 
0

>  <s_epik_Chemistry_Notes>  (308) 
This compound has an ester and may undergo hydrolysis at high or low pH. This compound contains an acetal/aminal-like group ( X-CH(R)-Y where X, Y are N, S, or O) that may be acid/base labile, releasing an aldehyde.

>  <s_lp_Force_Field>  (308) 
OPLS3e

>  <r_lp_Energy>  (308) 
368.772

>  <b_lp_Chiralities_Consistent>  (308) 
1

>  <s_lp_Variant>  (308) 
88:0-1

>  <s_i_glide_gridfile>  (308) 
pfpi4k_grid

>  <i_i_glide_lignum>  (308) 
3

>  <i_i_glide_rotatable_bonds>  (308) 
4

>  <r_i_docking_score>  (308) 
-2.96775

>  <r_i_glide_ligand_efficiency>  (308) 
-0.0847928

>  <r_i_glide_ligand_efficiency_sa>  (308) 
-0.277363

>  <r_i_glide_ligand_efficiency_ln>  (308) 
-0.651487

>  <r_i_glide_gscore>  (308) 
-2.96775

>  <r_i_glide_lipo>  (308) 
-0.509028

>  <r_i_glide_hbond>  (308) 
-0.633073

>  <r_i_glide_metal>  (308) 
-0

>  <r_i_glide_rewards>  (308) 
-0.0651265

>  <r_i_glide_evdw>  (308) 
-8.45521

>  <r_i_glide_ecoul>  (308) 
-9.48205

>  <r_i_glide_erotb>  (308) 
0.084547

>  <r_i_glide_esite>  (308) 
0

>  <r_i_glide_emodel>  (308) 
-18.0718

>  <r_i_glide_energy>  (308) 
-17.9373

>  <r_i_glide_einternal>  (308) 
2.05471

>  <r_i_glide_intrahb_reward>  (308) 
-0

>  <i_i_glide_confnum>  (308) 
2

>  <i_i_glide_posenum>  (308) 
17

>  <r_i_glide_eff_state_penalty>  (308) 
0

>  <ligand_id>  (308) 
88

>  <original_smiles>  (308) 
CC1(C)CCC(O)C23COC4(CC(O)C5(CO)C6CCCCC7C(=O)OC(O6)C7(C)C4CC25)C1C3

>  <smiles>  (308) 
[H]OC([H])([H])C12C3([H])OC4([H])OC(=O)C([H])(C([H])([H])C([H])([H])C([H])([H])C3([H])[H])C4(C([H])([H])[H])C3([H])C([H])([H])C1([H])C14C([H])([H])OC3(C([H])([H])C2([H])O[H])C([H])(C1([H])[H])C(C([H])([H])[H])(C([H])([H])[H])C([H])([H])C([H])([H])C4([H])O[H]

$$$$
88:0:1
     RDKit          3D

 77 83  0  0  1  0  0  0  0  0999 V2000
    6.5649   -3.1036   -1.7667 C   0  0  0  0  0  0  0  0  0  0  0  0
    5.3918   -2.4563   -0.9858 C   0  0  0  0  0  0  0  0  0  0  0  0
    5.9096   -1.0239   -0.7604 C   0  0  0  0  0  0  0  0  0  0  0  0
    4.1147   -2.2324   -1.9523 C   0  0  0  0  0  0  0  0  0  0  0  0
    2.7915   -3.1385   -2.0051 C   0  0  0  0  0  0  0  0  0  0  0  0
    2.1635   -3.7873   -0.6979 C   0  0  1  0  0  0  0  0  0  0  0  0
    1.4050   -4.9446   -1.0003 O   0  0  0  0  0  0  0  0  0  0  0  0
    3.2269   -4.1977    0.3249 C   0  0  2  0  0  0  0  0  0  0  0  0
    4.3339   -5.0991   -0.5701 C   0  0  0  0  0  0  0  0  0  0  0  0
    5.7364   -5.0431   -0.0910 O   0  0  0  0  0  0  0  0  0  0  0  0
    5.5542   -4.5479    1.1847 C   0  0  2  0  0  0  0  0  0  0  0  0
    6.1995   -4.0146    2.4195 C   0  0  0  0  0  0  0  0  0  0  0  0
    5.0041   -3.6130    3.4145 C   0  0  1  0  0  0  0  0  0  0  0  0
    5.0610   -2.2070    3.6105 O   0  0  0  0  0  0  0  0  0  0  0  0
    3.4686   -4.2131    3.2911 C   0  0  2  0  0  0  0  0  0  0  0  0
    2.4190   -3.1598    3.8530 C   0  0  0  0  0  0  0  0  0  0  0  0
    2.1687   -1.9350    3.1737 O   0  0  0  0  0  0  0  0  0  0  0  0
    3.4200   -5.3025    4.4846 C   0  0  1  0  0  0  0  0  0  0  0  0
    2.0877   -6.0582    4.8512 C   0  0  0  0  0  0  0  0  0  0  0  0
    1.7602   -7.4897    4.2943 C   0  0  0  0  0  0  0  0  0  0  0  0
    2.8189   -8.6359    4.4040 C   0  0  0  0  0  0  0  0  0  0  0  0
    3.7259   -8.9688    3.1565 C   0  0  0  0  0  0  0  0  0  0  0  0
    5.2213   -8.4702    3.0468 C   0  0  2  0  0  0  0  0  0  0  0  0
    5.9327   -8.7340    4.3674 C   0  0  0  0  0  0  0  0  0  0  0  0
    6.2333   -9.8562    4.7768 O   0  0  0  0  0  0  0  0  0  0  0  0
    6.1913   -7.5599    4.9802 O   0  0  0  0  0  0  0  0  0  0  0  0
    5.6722   -6.4967    4.2338 C   0  0  2  0  0  0  0  0  0  0  0  0
    4.3367   -6.3832    4.6063 O   0  0  0  0  0  0  0  0  0  0  0  0
    5.7103   -6.9932    2.7638 C   0  0  1  0  0  0  0  0  0  0  0  0
    7.2010   -7.1374    2.2730 C   0  0  0  0  0  0  0  0  0  0  0  0
    4.9527   -6.0476    1.7191 C   0  0  1  0  0  0  0  0  0  0  0  0
    3.4362   -6.1691    1.7354 C   0  0  0  0  0  0  0  0  0  0  0  0
    2.8977   -4.7897    1.8246 C   0  0  2  0  0  0  0  0  0  0  0  0
    5.1325   -3.0318    0.5082 C   0  0  2  0  0  0  0  0  0  0  0  0
    3.7188   -2.8181    0.7196 C   0  0  0  0  0  0  0  0  0  0  0  0
    6.9506   -2.4663   -2.5666 H   0  0  0  0  0  0  0  0  0  0  0  0
    6.2464   -4.0112   -2.2722 H   0  0  0  0  0  0  0  0  0  0  0  0
    7.4090   -3.3377   -1.1103 H   0  0  0  0  0  0  0  0  0  0  0  0
    5.2195   -0.3935   -0.1949 H   0  0  0  0  0  0  0  0  0  0  0  0
    6.0100   -0.5580   -1.7348 H   0  0  0  0  0  0  0  0  0  0  0  0
    6.8676   -1.0140   -0.2300 H   0  0  0  0  0  0  0  0  0  0  0  0
    3.7371   -1.2241   -1.7713 H   0  0  0  0  0  0  0  0  0  0  0  0
    4.4866   -2.1527   -2.9801 H   0  0  0  0  0  0  0  0  0  0  0  0
    2.0112   -2.5119   -2.4412 H   0  0  0  0  0  0  0  0  0  0  0  0
    2.9411   -3.8781   -2.7905 H   0  0  0  0  0  0  0  0  0  0  0  0
    1.4732   -3.0605   -0.2944 H   0  0  0  0  0  0  0  0  0  0  0  0
    1.8641   -5.3894   -1.6663 H   0  0  0  0  0  0  0  0  0  0  0  0
    4.0261   -6.1309   -0.6918 H   0  0  0  0  0  0  0  0  0  0  0  0
    4.4392   -4.8127   -1.5976 H   0  0  0  0  0  0  0  0  0  0  0  0
    6.8763   -4.7088    2.8618 H   0  0  0  0  0  0  0  0  0  0  0  0
    6.8512   -3.1975    2.1350 H   0  0  0  0  0  0  0  0  0  0  0  0
    5.3633   -3.8675    4.4046 H   0  0  0  0  0  0  0  0  0  0  0  0
    4.8400   -1.7740    2.8058 H   0  0  0  0  0  0  0  0  0  0  0  0
    1.4274   -3.5959    3.8982 H   0  0  0  0  0  0  0  0  0  0  0  0
    2.7079   -2.8764    4.8653 H   0  0  0  0  0  0  0  0  0  0  0  0
    2.1296   -2.0660    2.2356 H   0  0  0  0  0  0  0  0  0  0  0  0
    3.6459   -4.7257    5.3803 H   0  0  0  0  0  0  0  0  0  0  0  0
    2.1045   -6.1718    5.9353 H   0  0  0  0  0  0  0  0  0  0  0  0
    1.2087   -5.4448    4.6794 H   0  0  0  0  0  0  0  0  0  0  0  0
    0.9043   -7.8237    4.8806 H   0  0  0  0  0  0  0  0  0  0  0  0
    1.3478   -7.4416    3.2874 H   0  0  0  0  0  0  0  0  0  0  0  0
    3.3880   -8.5516    5.3283 H   0  0  0  0  0  0  0  0  0  0  0  0
    2.2319   -9.5397    4.5684 H   0  0  0  0  0  0  0  0  0  0  0  0
    3.8155  -10.0590    3.1803 H   0  0  0  0  0  0  0  0  0  0  0  0
    3.1884   -8.8226    2.2216 H   0  0  0  0  0  0  0  0  0  0  0  0
    5.6841   -9.1282    2.3177 H   0  0  0  0  0  0  0  0  0  0  0  0
    6.2808   -5.6395    4.4930 H   0  0  0  0  0  0  0  0  0  0  0  0
    7.6015   -6.2582    1.7823 H   0  0  0  0  0  0  0  0  0  0  0  0
    7.2951   -7.9181    1.5171 H   0  0  0  0  0  0  0  0  0  0  0  0
    7.8993   -7.3862    3.0699 H   0  0  0  0  0  0  0  0  0  0  0  0
    5.1823   -6.7800    0.9409 H   0  0  0  0  0  0  0  0  0  0  0  0
    2.9965   -6.7641    0.9371 H   0  0  0  0  0  0  0  0  0  0  0  0
    3.1517   -6.7173    2.5728 H   0  0  0  0  0  0  0  0  0  0  0  0
    1.8174   -4.8732    1.9066 H   0  0  0  0  0  0  0  0  0  0  0  0
    5.5296   -2.2226    1.1028 H   0  0  0  0  0  0  0  0  0  0  0  0
    3.2654   -1.9489    0.2338 H   0  0  0  0  0  0  0  0  0  0  0  0
    3.6297   -2.5237    1.7186 H   0  0  0  0  0  0  0  0  0  0  0  0
  1  2  1  0
  1 36  1  0
  1 37  1  0
  1 38  1  0
  2 34  1  0
  2  3  1  0
  2  4  1  0
  3 39  1  0
  3 40  1  0
  3 41  1  0
  4  5  1  0
  4 42  1  0
  4 43  1  0
  5  6  1  0
  5 44  1  0
  5 45  1  0
  6  7  1  0
  6  8  1  0
  6 46  1  1
  7 47  1  0
  8 33  1  0
  8 35  1  0
  8  9  1  6
  9 10  1  0
  9 48  1  0
  9 49  1  0
 10 11  1  0
 11 31  1  0
 11 12  1  1
 11 34  1  0
 12 13  1  0
 12 50  1  0
 12 51  1  0
 13 14  1  0
 13 15  1  0
 13 52  1  1
 14 53  1  0
 15 33  1  0
 15 16  1  1
 15 18  1  0
 16 17  1  0
 16 54  1  0
 16 55  1  0
 17 56  1  0
 18 28  1  0
 18 19  1  0
 18 57  1  1
 19 20  1  0
 19 58  1  0
 19 59  1  0
 20 21  1  0
 20 60  1  0
 20 61  1  0
 21 22  1  0
 21 62  1  0
 21 63  1  0
 22 23  1  0
 22 64  1  0
 22 65  1  0
 23 29  1  0
 23 24  1  0
 23 66  1  6
 24 25  2  0
 24 26  1  0
 26 27  1  0
 27 28  1  0
 27 29  1  0
 27 67  1  6
 29 30  1  6
 29 31  1  0
 30 68  1  0
 30 69  1  0
 30 70  1  0
 31 32  1  0
 31 71  1  6
 32 33  1  0
 32 72  1  0
 32 73  1  0
 33 74  1  1
 34 35  1  0
 34 75  1  1
 35 76  1  0
 35 77  1  0
M  END
>  <i_m_ct_stereo_status>  (309) 
1

>  <s_m_source_file>  (309) 
/var/tmp/pbs.5083858.sched01/tmppqcd7fte/125e55c3yqz.sdf

>  <i_m_source_file_index>  (309) 
3

>  <i_lp_mmshare_version>  (309) 
48012

>  <i_f3d_flags>  (309) 
0

>  <s_epik_input>  (309) 
W09IXVtDQEBIXTFbQ0gyXVtDSDJdQyhbQ0gzXSkoW0NIM10pW0NAQEhdKFtDSDJdMilbQ0BAXShPW0NIMl0zKShbQ0gyXVtDQEhdNFtPSF0pW0NASF0oW0NIMl01KVtDQEBdKFtDSDNdKShbQ0BASF0oTzYpT0M3PU8pW0NAQEhdN1tDSDJdW0NIMl1bQ0gyXVtDSDJdW0NAQEhdNltDQEBdNChbQ0BIXTVbQ0BAXTEyMylbQ0gyXVtPSF0=

>  <s_epik_cmdline>  (309) 
J2VwaWtfcHl0aG9uJywgJy1waHQnLCAnMi4wJywgJy1waCcsICc3LjAnLCAnLXRuJywgJzgnLCAnLW1hJywgJzIwMCcsICctaW1hZScsICc8aW5maWxlLm1hZT4nLCAnLW9tYWUnLCAnPG91dGZpbGUubWFlPic=

>  <r_lp_tautomer_probability>  (309) 
1

>  <r_epik_Ionization_Penalty>  (309) 
8.83664e-07

>  <r_epik_Ionization_Penalty_Charging>  (309) 
0

>  <r_epik_Ionization_Penalty_Neutral>  (309) 
8.83664e-07

>  <r_epik_State_Penalty>  (309) 
-0

>  <r_epik_Charging_Adjusted_Penalty>  (309) 
0

>  <i_epik_Tot_Q>  (309) 
0

>  <i_epik_Tot_abs_Q>  (309) 
0

>  <s_epik_Chemistry_Notes>  (309) 
This compound has an ester and may undergo hydrolysis at high or low pH. This compound contains an acetal/aminal-like group ( X-CH(R)-Y where X, Y are N, S, or O) that may be acid/base labile, releasing an aldehyde.

>  <s_lp_Force_Field>  (309) 
OPLS3e

>  <r_lp_Energy>  (309) 
368.772

>  <b_lp_Chiralities_Consistent>  (309) 
1

>  <s_lp_Variant>  (309) 
88:0-1

>  <s_i_glide_gridfile>  (309) 
pfpi4k_grid

>  <i_i_glide_lignum>  (309) 
3

>  <i_i_glide_rotatable_bonds>  (309) 
4

>  <r_i_docking_score>  (309) 
-2.56828

>  <r_i_glide_ligand_efficiency>  (309) 
-0.0733794

>  <r_i_glide_ligand_efficiency_sa>  (309) 
-0.240029

>  <r_i_glide_ligand_efficiency_ln>  (309) 
-0.563795

>  <r_i_glide_gscore>  (309) 
-2.56828

>  <r_i_glide_lipo>  (309) 
-0.318818

>  <r_i_glide_hbond>  (309) 
-0.462468

>  <r_i_glide_metal>  (309) 
-0

>  <r_i_glide_rewards>  (309) 
-0.063894

>  <r_i_glide_evdw>  (309) 
-11.09

>  <r_i_glide_ecoul>  (309) 
-8.35431

>  <r_i_glide_erotb>  (309) 
0.084547

>  <r_i_glide_esite>  (309) 
-1.63895e-06

>  <r_i_glide_emodel>  (309) 
-19.5399

>  <r_i_glide_energy>  (309) 
-19.4443

>  <r_i_glide_einternal>  (309) 
0.388742

>  <r_i_glide_intrahb_reward>  (309) 
-0

>  <i_i_glide_confnum>  (309) 
1

>  <i_i_glide_posenum>  (309) 
6

>  <r_i_glide_eff_state_penalty>  (309) 
0

>  <ligand_id>  (309) 
88

>  <original_smiles>  (309) 
CC1(C)CCC(O)C23COC4(CC(O)C5(CO)C6CCCCC7C(=O)OC(O6)C7(C)C4CC25)C1C3

>  <smiles>  (309) 
[H]OC([H])([H])C12C3([H])OC4([H])OC(=O)C([H])(C([H])([H])C([H])([H])C([H])([H])C3([H])[H])C4(C([H])([H])[H])C3([H])C([H])([H])C1([H])C14C([H])([H])OC3(C([H])([H])C2([H])O[H])C([H])(C1([H])[H])C(C([H])([H])[H])(C([H])([H])[H])C([H])([H])C([H])([H])C4([H])O[H]

$$$$
88:0:2
     RDKit          3D

 77 83  0  0  1  0  0  0  0  0999 V2000
    6.6137   -3.1183   -1.5741 C   0  0  0  0  0  0  0  0  0  0  0  0
    5.4316   -2.4692   -0.8191 C   0  0  0  0  0  0  0  0  0  0  0  0
    5.9686   -1.0455   -0.5501 C   0  0  0  0  0  0  0  0  0  0  0  0
    4.1825   -2.2188   -1.8216 C   0  0  0  0  0  0  0  0  0  0  0  0
    2.8557   -3.1070   -1.9363 C   0  0  0  0  0  0  0  0  0  0  0  0
    2.1788   -3.7682   -0.6657 C   0  0  1  0  0  0  0  0  0  0  0  0
    1.4097   -4.8989   -1.0037 O   0  0  0  0  0  0  0  0  0  0  0  0
    3.2041   -4.2229    0.3826 C   0  0  2  0  0  0  0  0  0  0  0  0
    4.3171   -5.1166   -0.5013 C   0  0  0  0  0  0  0  0  0  0  0  0
    5.6999   -5.0977    0.0274 O   0  0  0  0  0  0  0  0  0  0  0  0
    5.4911   -4.6097    1.3077 C   0  0  2  0  0  0  0  0  0  0  0  0
    6.0858   -4.1165    2.5914 C   0  0  0  0  0  0  0  0  0  0  0  0
    4.8792   -3.7077    3.5525 C   0  0  1  0  0  0  0  0  0  0  0  0
    4.9703   -2.3060    3.7667 O   0  0  0  0  0  0  0  0  0  0  0  0
    3.3468   -4.2825    3.3642 C   0  0  2  0  0  0  0  0  0  0  0  0
    2.3088   -3.1828    3.8974 C   0  0  0  0  0  0  0  0  0  0  0  0
    2.0576   -1.9674    3.2142 O   0  0  0  0  0  0  0  0  0  0  0  0
    3.2433   -5.3824    4.5393 C   0  0  1  0  0  0  0  0  0  0  0  0
    1.8949   -6.1308    4.8538 C   0  0  0  0  0  0  0  0  0  0  0  0
    1.5670   -7.5512    4.2613 C   0  0  0  0  0  0  0  0  0  0  0  0
    2.6071   -8.7126    4.3857 C   0  0  0  0  0  0  0  0  0  0  0  0
    3.5483   -9.0337    3.1574 C   0  0  0  0  0  0  0  0  0  0  0  0
    5.0523   -8.5579    3.1000 C   0  0  2  0  0  0  0  0  0  0  0  0
    5.7213   -8.8473    4.4421 C   0  0  0  0  0  0  0  0  0  0  0  0
    5.9952   -9.9853    4.8450 O   0  0  0  0  0  0  0  0  0  0  0  0
    5.9732   -7.6934    5.0776 O   0  0  0  0  0  0  0  0  0  0  0  0
    5.4879   -6.6100    4.3400 C   0  0  2  0  0  0  0  0  0  0  0  0
    4.1419   -6.4760    4.6746 O   0  0  0  0  0  0  0  0  0  0  0  0
    5.5685   -7.0827    2.8562 C   0  0  1  0  0  0  0  0  0  0  0  0
    7.0735   -7.2328    2.4128 C   0  0  0  0  0  0  0  0  0  0  0  0
    4.8561   -6.1079    1.7999 C   0  0  1  0  0  0  0  0  0  0  0  0
    3.3402   -6.2074    1.7686 C   0  0  0  0  0  0  0  0  0  0  0  0
    2.8123   -4.8223    1.8675 C   0  0  2  0  0  0  0  0  0  0  0  0
    5.1156   -3.0786    0.6495 C   0  0  2  0  0  0  0  0  0  0  0  0
    3.7015   -2.8641    0.8081 C   0  0  0  0  0  0  0  0  0  0  0  0
    7.0342   -2.4685   -2.3456 H   0  0  0  0  0  0  0  0  0  0  0  0
    6.2951   -4.0105   -2.1095 H   0  0  0  0  0  0  0  0  0  0  0  0
    7.4324   -3.3821   -0.8968 H   0  0  0  0  0  0  0  0  0  0  0  0
    5.2636   -0.4184    0.0002 H   0  0  0  0  0  0  0  0  0  0  0  0
    6.1250   -0.5585   -1.5045 H   0  0  0  0  0  0  0  0  0  0  0  0
    6.9074   -1.0492    0.0143 H   0  0  0  0  0  0  0  0  0  0  0  0
    3.8076   -1.2100   -1.6316 H   0  0  0  0  0  0  0  0  0  0  0  0
    4.5852   -2.1234   -2.8376 H   0  0  0  0  0  0  0  0  0  0  0  0
    2.0921   -2.4676   -2.3894 H   0  0  0  0  0  0  0  0  0  0  0  0
    3.0107   -3.8591   -2.7132 H   0  0  0  0  0  0  0  0  0  0  0  0
    1.4791   -3.0590   -0.2545 H   0  0  0  0  0  0  0  0  0  0  0  0
    1.9261   -5.3756   -1.6681 H   0  0  0  0  0  0  0  0  0  0  0  0
    3.9925   -6.1380   -0.7030 H   0  0  0  0  0  0  0  0  0  0  0  0
    4.4619   -4.7966   -1.5192 H   0  0  0  0  0  0  0  0  0  0  0  0
    6.7574   -4.8097    3.0440 H   0  0  0  0  0  0  0  0  0  0  0  0
    6.7268   -3.2738    2.3966 H   0  0  0  0  0  0  0  0  0  0  0  0
    5.2127   -3.9792    4.5476 H   0  0  0  0  0  0  0  0  0  0  0  0
    4.6340   -1.8612    3.0040 H   0  0  0  0  0  0  0  0  0  0  0  0
    1.3085   -3.5980    3.9539 H   0  0  0  0  0  0  0  0  0  0  0  0
    2.5758   -2.9125    4.9230 H   0  0  0  0  0  0  0  0  0  0  0  0
    1.4886   -1.4275    3.7307 H   0  0  0  0  0  0  0  0  0  0  0  0
    3.4511   -4.8299    5.4538 H   0  0  0  0  0  0  0  0  0  0  0  0
    1.8756   -6.2670    5.9390 H   0  0  0  0  0  0  0  0  0  0  0  0
    1.0286   -5.5043    4.6636 H   0  0  0  0  0  0  0  0  0  0  0  0
    0.6877   -7.8843    4.8156 H   0  0  0  0  0  0  0  0  0  0  0  0
    1.1870   -7.4789    3.2438 H   0  0  0  0  0  0  0  0  0  0  0  0
    3.1483   -8.6503    5.3253 H   0  0  0  0  0  0  0  0  0  0  0  0
    2.0041   -9.6114    4.5153 H   0  0  0  0  0  0  0  0  0  0  0  0
    3.6232  -10.1266    3.1654 H   0  0  0  0  0  0  0  0  0  0  0  0
    3.0413   -8.8648    2.2119 H   0  0  0  0  0  0  0  0  0  0  0  0
    5.5275   -9.2040    2.3735 H   0  0  0  0  0  0  0  0  0  0  0  0
    6.0968   -5.7696    4.6357 H   0  0  0  0  0  0  0  0  0  0  0  0
    7.5013   -6.3495    1.9504 H   0  0  0  0  0  0  0  0  0  0  0  0
    7.1809   -8.0014    1.6461 H   0  0  0  0  0  0  0  0  0  0  0  0
    7.7433   -7.5049    3.2266 H   0  0  0  0  0  0  0  0  0  0  0  0
    5.0888   -6.8343    1.0142 H   0  0  0  0  0  0  0  0  0  0  0  0
    2.9327   -6.7732    0.9327 H   0  0  0  0  0  0  0  0  0  0  0  0
    3.0210   -6.7683    2.5865 H   0  0  0  0  0  0  0  0  0  0  0  0
    1.7324   -4.9004    1.9197 H   0  0  0  0  0  0  0  0  0  0  0  0
    5.4979   -2.2809    1.2763 H   0  0  0  0  0  0  0  0  0  0  0  0
    3.2697   -1.9675    0.3473 H   0  0  0  0  0  0  0  0  0  0  0  0
    3.5826   -2.5851    1.8041 H   0  0  0  0  0  0  0  0  0  0  0  0
  1  2  1  0
  1 36  1  0
  1 37  1  0
  1 38  1  0
  2 34  1  0
  2  3  1  0
  2  4  1  0
  3 39  1  0
  3 40  1  0
  3 41  1  0
  4  5  1  0
  4 42  1  0
  4 43  1  0
  5  6  1  0
  5 44  1  0
  5 45  1  0
  6  7  1  0
  6  8  1  0
  6 46  1  1
  7 47  1  0
  8 33  1  0
  8 35  1  0
  8  9  1  6
  9 10  1  0
  9 48  1  0
  9 49  1  0
 10 11  1  0
 11 31  1  0
 11 12  1  1
 11 34  1  0
 12 13  1  0
 12 50  1  0
 12 51  1  0
 13 14  1  0
 13 15  1  0
 13 52  1  1
 14 53  1  0
 15 33  1  0
 15 16  1  1
 15 18  1  0
 16 17  1  0
 16 54  1  0
 16 55  1  0
 17 56  1  0
 18 28  1  0
 18 19  1  0
 18 57  1  1
 19 20  1  0
 19 58  1  0
 19 59  1  0
 20 21  1  0
 20 60  1  0
 20 61  1  0
 21 22  1  0
 21 62  1  0
 21 63  1  0
 22 23  1  0
 22 64  1  0
 22 65  1  0
 23 29  1  0
 23 24  1  0
 23 66  1  6
 24 25  2  0
 24 26  1  0
 26 27  1  0
 27 28  1  0
 27 29  1  0
 27 67  1  6
 29 30  1  6
 29 31  1  0
 30 68  1  0
 30 69  1  0
 30 70  1  0
 31 32  1  0
 31 71  1  6
 32 33  1  0
 32 72  1  0
 32 73  1  0
 33 74  1  1
 34 35  1  0
 34 75  1  1
 35 76  1  0
 35 77  1  0
M  END
>  <i_m_ct_stereo_status>  (310) 
1

>  <s_m_source_file>  (310) 
/var/tmp/pbs.5083858.sched01/tmppqcd7fte/125e55c3yqz.sdf

>  <i_m_source_file_index>  (310) 
3

>  <i_lp_mmshare_version>  (310) 
48012

>  <i_f3d_flags>  (310) 
0

>  <s_epik_input>  (310) 
W09IXVtDQEBIXTFbQ0gyXVtDSDJdQyhbQ0gzXSkoW0NIM10pW0NAQEhdKFtDSDJdMilbQ0BAXShPW0NIMl0zKShbQ0gyXVtDQEhdNFtPSF0pW0NASF0oW0NIMl01KVtDQEBdKFtDSDNdKShbQ0BASF0oTzYpT0M3PU8pW0NAQEhdN1tDSDJdW0NIMl1bQ0gyXVtDSDJdW0NAQEhdNltDQEBdNChbQ0BIXTVbQ0BAXTEyMylbQ0gyXVtPSF0=

>  <s_epik_cmdline>  (310) 
J2VwaWtfcHl0aG9uJywgJy1waHQnLCAnMi4wJywgJy1waCcsICc3LjAnLCAnLXRuJywgJzgnLCAnLW1hJywgJzIwMCcsICctaW1hZScsICc8aW5maWxlLm1hZT4nLCAnLW9tYWUnLCAnPG91dGZpbGUubWFlPic=

>  <r_lp_tautomer_probability>  (310) 
1

>  <r_epik_Ionization_Penalty>  (310) 
8.83664e-07

>  <r_epik_Ionization_Penalty_Charging>  (310) 
0

>  <r_epik_Ionization_Penalty_Neutral>  (310) 
8.83664e-07

>  <r_epik_State_Penalty>  (310) 
-0

>  <r_epik_Charging_Adjusted_Penalty>  (310) 
0

>  <i_epik_Tot_Q>  (310) 
0

>  <i_epik_Tot_abs_Q>  (310) 
0

>  <s_epik_Chemistry_Notes>  (310) 
This compound has an ester and may undergo hydrolysis at high or low pH. This compound contains an acetal/aminal-like group ( X-CH(R)-Y where X, Y are N, S, or O) that may be acid/base labile, releasing an aldehyde.

>  <s_lp_Force_Field>  (310) 
OPLS3e

>  <r_lp_Energy>  (310) 
368.772

>  <b_lp_Chiralities_Consistent>  (310) 
1

>  <s_lp_Variant>  (310) 
88:0-1

>  <s_i_glide_gridfile>  (310) 
pfpi4k_grid

>  <i_i_glide_lignum>  (310) 
3

>  <i_i_glide_rotatable_bonds>  (310) 
4

>  <r_i_docking_score>  (310) 
-2.41538

>  <r_i_glide_ligand_efficiency>  (310) 
-0.069011

>  <r_i_glide_ligand_efficiency_sa>  (310) 
-0.225739

>  <r_i_glide_ligand_efficiency_ln>  (310) 
-0.53023

>  <r_i_glide_gscore>  (310) 
-2.41538

>  <r_i_glide_lipo>  (310) 
-0.302734

>  <r_i_glide_hbond>  (310) 
-0.429722

>  <r_i_glide_metal>  (310) 
-0

>  <r_i_glide_rewards>  (310) 
-0.063894

>  <r_i_glide_evdw>  (310) 
-10.3173

>  <r_i_glide_ecoul>  (310) 
-7.91811

>  <r_i_glide_erotb>  (310) 
0.084547

>  <r_i_glide_esite>  (310) 
0

>  <r_i_glide_emodel>  (310) 
-18.7725

>  <r_i_glide_energy>  (310) 
-18.2354

>  <r_i_glide_einternal>  (310) 
0.534274

>  <r_i_glide_intrahb_reward>  (310) 
-0

>  <i_i_glide_confnum>  (310) 
2

>  <i_i_glide_posenum>  (310) 
10

>  <r_i_glide_eff_state_penalty>  (310) 
0

>  <ligand_id>  (310) 
88

>  <original_smiles>  (310) 
CC1(C)CCC(O)C23COC4(CC(O)C5(CO)C6CCCCC7C(=O)OC(O6)C7(C)C4CC25)C1C3

>  <smiles>  (310) 
[H]OC([H])([H])C12C3([H])OC4([H])OC(=O)C([H])(C([H])([H])C([H])([H])C([H])([H])C3([H])[H])C4(C([H])([H])[H])C3([H])C([H])([H])C1([H])C14C([H])([H])OC3(C([H])([H])C2([H])O[H])C([H])(C1([H])[H])C(C([H])([H])[H])(C([H])([H])[H])C([H])([H])C([H])([H])C4([H])O[H]

$$$$
89:0:0
     RDKit          3D

 86 90  0  0  1  0  0  0  0  0999 V2000
    1.9414   -8.4014    9.0568 C   0  0  0  0  0  0  0  0  0  0  0  0
    1.7090   -7.5768    8.0280 C   0  0  0  0  0  0  0  0  0  0  0  0
    0.3628   -6.8699    7.9618 C   0  0  0  0  0  0  0  0  0  0  0  0
    0.5441   -5.3653    7.9888 C   0  0  1  0  0  0  0  0  0  0  0  0
    0.8284   -4.9750    9.3341 O   0  0  0  0  0  0  0  0  0  0  0  0
    0.2394   -3.9027    9.8897 C   0  0  0  0  0  0  0  0  0  0  0  0
    0.7054   -3.6882   11.3181 C   0  0  0  0  0  0  0  0  0  0  0  0
   -0.5832   -3.1559    9.3479 O   0  0  0  0  0  0  0  0  0  0  0  0
    1.6264   -4.9142    6.9766 C   0  0  1  0  0  0  0  0  0  0  0  0
    1.6685   -3.4991    6.9972 O   0  0  0  0  0  0  0  0  0  0  0  0
    0.8156   -2.6867    6.3102 C   0  0  0  0  0  0  0  0  0  0  0  0
   -0.2124   -3.3471    5.3859 C   0  0  0  0  0  0  0  0  0  0  0  0
    0.8236   -1.4730    6.4344 O   0  0  0  0  0  0  0  0  0  0  0  0
    3.0120   -5.6505    7.0303 C   0  0  2  0  0  0  0  0  0  0  0  0
    3.6991   -5.2971    8.3885 C   0  0  0  0  0  0  0  0  0  0  0  0
    3.9200   -5.0840    5.8923 C   0  0  1  0  0  0  0  0  0  0  0  0
    4.2308   -3.6978    6.0765 O   0  0  0  0  0  0  0  0  0  0  0  0
    4.2703   -2.8350    5.0313 C   0  0  0  0  0  0  0  0  0  0  0  0
    4.0829   -3.1659    3.8585 O   0  0  0  0  0  0  0  0  0  0  0  0
    4.5312   -1.4278    5.4597 C   0  0  0  0  0  0  0  0  0  0  0  0
    4.4309   -0.3718    4.5304 C   0  0  0  0  0  0  0  0  0  0  0  0
    4.6620    0.9593    4.9307 C   0  0  0  0  0  0  0  0  0  0  0  0
    5.0034    1.2450    6.2636 C   0  0  0  0  0  0  0  0  0  0  0  0
    5.1054    0.2033    7.1986 C   0  0  0  0  0  0  0  0  0  0  0  0
    4.8678   -1.1244    6.7986 C   0  0  0  0  0  0  0  0  0  0  0  0
    5.2775   -5.7477    5.7747 C   0  0  2  0  0  0  0  0  0  0  0  0
    5.7514   -5.8467    4.4299 O   0  0  0  0  0  0  0  0  0  0  0  0
    5.6647   -7.0802    5.1603 C   0  0  2  0  0  0  0  0  0  0  0  0
    4.8587   -8.1770    4.4537 C   0  0  1  0  0  0  0  0  0  0  0  0
    5.1955   -9.3807    5.1001 O   0  0  0  0  0  0  0  0  0  0  0  0
    3.3111   -8.0150    4.1741 C   0  0  1  0  0  0  0  0  0  0  0  0
    3.2864   -6.7763    3.4816 O   0  0  0  0  0  0  0  0  0  0  0  0
    2.7738   -8.9793    2.9794 C   0  0  0  0  0  0  0  0  0  0  0  0
    1.6140   -8.3256    2.1520 C   0  0  0  0  0  0  0  0  0  0  0  0
    3.8387   -9.2529    1.8828 C   0  0  0  0  0  0  0  0  0  0  0  0
    2.2076  -10.3584    3.4602 C   0  0  1  0  0  0  0  0  0  0  0  0
    3.1895  -11.5147    3.7367 C   0  0  0  0  0  0  0  0  0  0  0  0
    1.1934  -10.1781    4.5905 C   0  0  0  0  0  0  0  0  0  0  0  0
    1.7469   -9.4002    5.7933 C   0  0  1  0  0  0  0  0  0  0  0  0
    2.6539  -10.2229    6.5101 O   0  0  0  0  0  0  0  0  0  0  0  0
    2.3350   -7.9592    5.4871 C   0  0  2  0  0  0  0  0  0  0  0  0
    1.1902   -7.2744    5.0222 O   0  0  0  0  0  0  0  0  0  0  0  0
    2.7464   -7.2374    6.9073 C   0  0  2  0  0  0  0  0  0  0  0  0
    3.9382   -7.8801    7.2959 O   0  0  0  0  0  0  0  0  0  0  0  0
    2.8785   -8.9271    9.1905 H   0  0  0  0  0  0  0  0  0  0  0  0
    1.1825   -8.5716    9.8097 H   0  0  0  0  0  0  0  0  0  0  0  0
   -0.1689   -7.1559    7.0624 H   0  0  0  0  0  0  0  0  0  0  0  0
   -0.2721   -7.1834    8.7889 H   0  0  0  0  0  0  0  0  0  0  0  0
   -0.4094   -4.9345    7.6917 H   0  0  0  0  0  0  0  0  0  0  0  0
    1.7818   -3.5043   11.3412 H   0  0  0  0  0  0  0  0  0  0  0  0
    0.5015   -4.5808   11.9134 H   0  0  0  0  0  0  0  0  0  0  0  0
    0.1947   -2.8397   11.7758 H   0  0  0  0  0  0  0  0  0  0  0  0
    1.2793   -5.1971    5.9791 H   0  0  0  0  0  0  0  0  0  0  0  0
    0.1795   -4.1559    4.7561 H   0  0  0  0  0  0  0  0  0  0  0  0
   -0.6698   -2.5984    4.7372 H   0  0  0  0  0  0  0  0  0  0  0  0
   -1.0233   -3.7397    5.9930 H   0  0  0  0  0  0  0  0  0  0  0  0
    4.7448   -5.6156    8.4262 H   0  0  0  0  0  0  0  0  0  0  0  0
    3.1978   -5.7694    9.2298 H   0  0  0  0  0  0  0  0  0  0  0  0
    3.6745   -4.2202    8.5641 H   0  0  0  0  0  0  0  0  0  0  0  0
    3.3713   -5.1514    4.9711 H   0  0  0  0  0  0  0  0  0  0  0  0
    4.1668   -0.5703    3.4999 H   0  0  0  0  0  0  0  0  0  0  0  0
    4.5745    1.7586    4.2084 H   0  0  0  0  0  0  0  0  0  0  0  0
    5.1837    2.2664    6.5717 H   0  0  0  0  0  0  0  0  0  0  0  0
    5.3666    0.4150    8.2271 H   0  0  0  0  0  0  0  0  0  0  0  0
    4.9492   -1.9093    7.5366 H   0  0  0  0  0  0  0  0  0  0  0  0
    6.0098   -5.3718    6.4872 H   0  0  0  0  0  0  0  0  0  0  0  0
    6.6380   -7.4327    5.4937 H   0  0  0  0  0  0  0  0  0  0  0  0
    5.3950   -8.2343    3.5094 H   0  0  0  0  0  0  0  0  0  0  0  0
    4.6631   -9.4561    5.8794 H   0  0  0  0  0  0  0  0  0  0  0  0
    3.7759   -6.1326    3.9658 H   0  0  0  0  0  0  0  0  0  0  0  0
    1.2383   -9.0180    1.4024 H   0  0  0  0  0  0  0  0  0  0  0  0
    1.9291   -7.4428    1.5888 H   0  0  0  0  0  0  0  0  0  0  0  0
    0.7558   -8.0330    2.7507 H   0  0  0  0  0  0  0  0  0  0  0  0
    3.4150   -9.8391    1.0632 H   0  0  0  0  0  0  0  0  0  0  0  0
    4.6821   -9.8311    2.2540 H   0  0  0  0  0  0  0  0  0  0  0  0
    4.2308   -8.3274    1.4548 H   0  0  0  0  0  0  0  0  0  0  0  0
    1.6353  -10.7603    2.6243 H   0  0  0  0  0  0  0  0  0  0  0  0
    3.8728  -11.3215    4.5551 H   0  0  0  0  0  0  0  0  0  0  0  0
    3.7760  -11.7816    2.8570 H   0  0  0  0  0  0  0  0  0  0  0  0
    2.6314  -12.4104    4.0130 H   0  0  0  0  0  0  0  0  0  0  0  0
    0.3178   -9.6576    4.2040 H   0  0  0  0  0  0  0  0  0  0  0  0
    0.8030  -11.1469    4.9116 H   0  0  0  0  0  0  0  0  0  0  0  0
    0.8727   -9.3102    6.4397 H   0  0  0  0  0  0  0  0  0  0  0  0
    2.1777  -10.9931    6.8276 H   0  0  0  0  0  0  0  0  0  0  0  0
    0.4873   -7.4305    5.6286 H   0  0  0  0  0  0  0  0  0  0  0  0
    3.7091   -8.8008    7.3550 H   0  0  0  0  0  0  0  0  0  0  0  0
  1  2  2  0
  1 45  1  0
  1 46  1  0
  2 43  1  0
  2  3  1  0
  3  4  1  0
  3 47  1  0
  3 48  1  0
  4  5  1  0
  4  9  1  0
  4 49  1  6
  5  6  1  0
  6  7  1  0
  6  8  2  0
  7 50  1  0
  7 51  1  0
  7 52  1  0
  9 10  1  0
  9 14  1  0
  9 53  1  6
 10 11  1  0
 11 12  1  0
 11 13  2  0
 12 54  1  0
 12 55  1  0
 12 56  1  0
 14 43  1  0
 14 15  1  1
 14 16  1  0
 15 57  1  0
 15 58  1  0
 15 59  1  0
 16 17  1  0
 16 26  1  0
 16 60  1  6
 17 18  1  0
 18 19  2  0
 18 20  1  0
 20 25  1  0
 20 21  2  0
 21 22  1  0
 21 61  1  0
 22 23  2  0
 22 62  1  0
 23 24  1  0
 23 63  1  0
 24 25  2  0
 24 64  1  0
 25 65  1  0
 26 28  1  0
 26 27  1  0
 26 66  1  1
 27 28  1  0
 28 29  1  0
 28 67  1  1
 29 30  1  0
 29 31  1  0
 29 68  1  6
 30 69  1  0
 31 41  1  0
 31 32  1  6
 31 33  1  0
 32 70  1  0
 33 34  1  0
 33 35  1  0
 33 36  1  0
 34 71  1  0
 34 72  1  0
 34 73  1  0
 35 74  1  0
 35 75  1  0
 35 76  1  0
 36 37  1  0
 36 38  1  0
 36 77  1  6
 37 78  1  0
 37 79  1  0
 37 80  1  0
 38 39  1  0
 38 81  1  0
 38 82  1  0
 39 40  1  0
 39 41  1  0
 39 83  1  1
 40 84  1  0
 41 42  1  6
 41 43  1  0
 42 85  1  0
 43 44  1  1
 44 86  1  0
M  END
>  <i_m_ct_stereo_status>  (311) 
1

>  <s_m_source_file>  (311) 
/var/tmp/pbs.5083858.sched01/tmppqcd7fte/125e55c3yqz.sdf

>  <i_m_source_file_index>  (311) 
4

>  <i_lp_mmshare_version>  (311) 
48012

>  <i_f3d_flags>  (311) 
0

>  <s_epik_input>  (311) 
W0NIM11DKD1PKU9bQ0BASF0xW0NASF0oT0MoPU8pW0NIM10pW0NIMl1DKD1bQ0gyXSlbQ0BdKFtPSF0pKFtDQF0xMltDSDNdKVtDQEBdMyhbT0hdKVtDQF0oW09IXSkoQyhbQ0gzXSkoW0NIM10pW0NAQEhdKFtDSDNdKVtDSDJdW0NASF0zW09IXSlbQ0BIXShbT0hdKVtDQEBIXTRbQ0BASF0oTzQpW0NAQEhdMk9DKD1PKWM1W2NIXVtjSF1bY0hdW2NIXVtjSF01

>  <s_epik_cmdline>  (311) 
J2VwaWtfcHl0aG9uJywgJy1waHQnLCAnMi4wJywgJy1waCcsICc3LjAnLCAnLXRuJywgJzgnLCAnLW1hJywgJzIwMCcsICctaW1hZScsICc8aW5maWxlLm1hZT4nLCAnLW9tYWUnLCAnPG91dGZpbGUubWFlPic=

>  <r_lp_tautomer_probability>  (311) 
1

>  <r_epik_Ionization_Penalty>  (311) 
1.09959e-06

>  <r_epik_Ionization_Penalty_Charging>  (311) 
0

>  <r_epik_Ionization_Penalty_Neutral>  (311) 
1.09959e-06

>  <r_epik_State_Penalty>  (311) 
-0

>  <r_epik_Charging_Adjusted_Penalty>  (311) 
0

>  <i_epik_Tot_Q>  (311) 
0

>  <i_epik_Tot_abs_Q>  (311) 
0

>  <s_epik_Chemistry_Notes>  (311) 
This compound has an ester and may undergo hydrolysis at high or low pH.

>  <s_lp_Force_Field>  (311) 
OPLS3e

>  <r_lp_Energy>  (311) 
96.8489

>  <b_lp_Chiralities_Consistent>  (311) 
1

>  <s_lp_Variant>  (311) 
89:0-1

>  <s_i_glide_gridfile>  (311) 
pfpi4k_grid

>  <i_i_glide_lignum>  (311) 
4

>  <i_i_glide_rotatable_bonds>  (311) 
12

>  <r_i_docking_score>  (311) 
-3.38192

>  <r_i_glide_ligand_efficiency>  (311) 
-0.0768618

>  <r_i_glide_ligand_efficiency_sa>  (311) 
-0.271349

>  <r_i_glide_ligand_efficiency_ln>  (311) 
-0.706895

>  <r_i_glide_gscore>  (311) 
-3.38192

>  <r_i_glide_lipo>  (311) 
-0.0939391

>  <r_i_glide_hbond>  (311) 
-0.16

>  <r_i_glide_metal>  (311) 
-0

>  <r_i_glide_rewards>  (311) 
-1.00642

>  <r_i_glide_evdw>  (311) 
-25.1803

>  <r_i_glide_ecoul>  (311) 
-6.6145

>  <r_i_glide_erotb>  (311) 
0.144736

>  <r_i_glide_esite>  (311) 
-0.0151056

>  <r_i_glide_emodel>  (311) 
-46.9385

>  <r_i_glide_energy>  (311) 
-31.7948

>  <r_i_glide_einternal>  (311) 
5.79148

>  <r_i_glide_intrahb_reward>  (311) 
-1

>  <i_i_glide_confnum>  (311) 
4

>  <i_i_glide_posenum>  (311) 
21

>  <r_i_glide_eff_state_penalty>  (311) 
0

>  <ligand_id>  (311) 
89

>  <original_smiles>  (311) 
C=C1CC(OC(C)=O)C(OC(C)=O)C2(C)C(OC(=O)c3ccccc3)C3OC3C(O)C3(O)C(C)(C)C(C)CC(O)C3(O)C12O

>  <smiles>  (311) 
[H]OC1([H])C([H])([H])C([H])(C([H])([H])[H])C(C([H])([H])[H])(C([H])([H])[H])C2(O[H])C([H])(O[H])C3([H])OC3([H])C([H])(OC(=O)c3c([H])c([H])c([H])c([H])c3[H])C3(C([H])([H])[H])C([H])(OC(=O)C([H])([H])[H])C([H])(OC(=O)C([H])([H])[H])C([H])([H])C(=C([H])[H])C3(O[H])C12O[H]

$$$$
89:0:1
     RDKit          3D

 86 90  0  0  1  0  0  0  0  0999 V2000
    5.8181   -8.8831    7.4881 C   0  0  0  0  0  0  0  0  0  0  0  0
    5.1524   -7.8901    6.8447 C   0  0  0  0  0  0  0  0  0  0  0  0
    4.8174   -6.6301    7.6340 C   0  0  0  0  0  0  0  0  0  0  0  0
    5.4465   -5.4178    6.9833 C   0  0  1  0  0  0  0  0  0  0  0  0
    6.8313   -5.4291    7.3534 O   0  0  0  0  0  0  0  0  0  0  0  0
    7.4728   -4.2886    7.6429 C   0  0  0  0  0  0  0  0  0  0  0  0
    8.9149   -4.5417    8.0648 C   0  0  0  0  0  0  0  0  0  0  0  0
    7.0142   -3.1528    7.5796 O   0  0  0  0  0  0  0  0  0  0  0  0
    5.1351   -5.3964    5.4524 C   0  0  1  0  0  0  0  0  0  0  0  0
    5.6737   -4.1865    4.9374 O   0  0  0  0  0  0  0  0  0  0  0  0
    4.9527   -3.0604    4.7465 C   0  0  0  0  0  0  0  0  0  0  0  0
    3.4906   -3.0516    5.1814 C   0  0  0  0  0  0  0  0  0  0  0  0
    5.4207   -2.0515    4.2232 O   0  0  0  0  0  0  0  0  0  0  0  0
    5.5389   -6.7137    4.6464 C   0  0  2  0  0  0  0  0  0  0  0  0
    7.0933   -6.9332    4.6964 C   0  0  0  0  0  0  0  0  0  0  0  0
    5.1478   -6.5048    3.1496 C   0  0  1  0  0  0  0  0  0  0  0  0
    5.9001   -5.4992    2.4559 O   0  0  0  0  0  0  0  0  0  0  0  0
    5.3030   -4.4918    1.7810 C   0  0  0  0  0  0  0  0  0  0  0  0
    4.0842   -4.2738    1.7398 O   0  0  0  0  0  0  0  0  0  0  0  0
    6.3185   -3.5863    1.1946 C   0  0  0  0  0  0  0  0  0  0  0  0
    7.6264   -4.0515    0.9420 C   0  0  0  0  0  0  0  0  0  0  0  0
    8.5964   -3.1960    0.3871 C   0  0  0  0  0  0  0  0  0  0  0  0
    8.2436   -1.8565    0.1057 C   0  0  0  0  0  0  0  0  0  0  0  0
    6.9614   -1.3826    0.3806 C   0  0  0  0  0  0  0  0  0  0  0  0
    5.9826   -2.2468    0.9129 C   0  0  0  0  0  0  0  0  0  0  0  0
    5.3661   -7.7029    2.2632 C   0  0  2  0  0  0  0  0  0  0  0  0
    4.3839   -7.8125    1.2387 O   0  0  0  0  0  0  0  0  0  0  0  0
    4.5079   -8.9550    2.0757 C   0  0  2  0  0  0  0  0  0  0  0  0
    3.2033   -9.4106    2.7189 C   0  0  1  0  0  0  0  0  0  0  0  0
    3.4288  -10.7201    3.2059 O   0  0  0  0  0  0  0  0  0  0  0  0
    2.4125   -8.4845    3.7283 C   0  0  1  0  0  0  0  0  0  0  0  0
    2.2550   -7.3042    2.9589 O   0  0  0  0  0  0  0  0  0  0  0  0
    0.8529   -8.8919    3.8537 C   0  0  0  0  0  0  0  0  0  0  0  0
   -0.0946   -7.6630    4.1066 C   0  0  0  0  0  0  0  0  0  0  0  0
    0.2516   -9.4907    2.5551 C   0  0  0  0  0  0  0  0  0  0  0  0
    0.5553   -9.8844    5.0091 C   0  0  1  0  0  0  0  0  0  0  0  0
    0.7460  -11.3912    4.7733 C   0  0  0  0  0  0  0  0  0  0  0  0
    1.1386   -9.4072    6.3337 C   0  0  0  0  0  0  0  0  0  0  0  0
    2.6488   -9.1812    6.2636 C   0  0  1  0  0  0  0  0  0  0  0  0
    3.2861  -10.4400    6.1828 O   0  0  0  0  0  0  0  0  0  0  0  0
    3.1450   -8.1698    5.1506 C   0  0  2  0  0  0  0  0  0  0  0  0
    2.5290   -6.9694    5.5711 O   0  0  0  0  0  0  0  0  0  0  0  0
    4.7573   -7.9421    5.3311 C   0  0  2  0  0  0  0  0  0  0  0  0
    5.3222   -9.1254    4.8388 O   0  0  0  0  0  0  0  0  0  0  0  0
    6.1093   -9.7994    6.9977 H   0  0  0  0  0  0  0  0  0  0  0  0
    6.0756   -8.7758    8.5265 H   0  0  0  0  0  0  0  0  0  0  0  0
    3.7461   -6.4938    7.6810 H   0  0  0  0  0  0  0  0  0  0  0  0
    5.1488   -6.7260    8.6636 H   0  0  0  0  0  0  0  0  0  0  0  0
    4.9829   -4.5279    7.3968 H   0  0  0  0  0  0  0  0  0  0  0  0
    9.4721   -5.0115    7.2487 H   0  0  0  0  0  0  0  0  0  0  0  0
    8.9325   -5.2117    8.9271 H   0  0  0  0  0  0  0  0  0  0  0  0
    9.4161   -3.5998    8.3343 H   0  0  0  0  0  0  0  0  0  0  0  0
    4.1242   -5.3150    5.3511 H   0  0  0  0  0  0  0  0  0  0  0  0
    2.9949   -3.9631    5.0280 H   0  0  0  0  0  0  0  0  0  0  0  0
    2.9897   -2.2536    4.6211 H   0  0  0  0  0  0  0  0  0  0  0  0
    3.4234   -2.7334    6.2153 H   0  0  0  0  0  0  0  0  0  0  0  0
    7.4320   -7.7135    4.0145 H   0  0  0  0  0  0  0  0  0  0  0  0
    7.4295   -7.2243    5.6806 H   0  0  0  0  0  0  0  0  0  0  0  0
    7.6225   -6.0190    4.4325 H   0  0  0  0  0  0  0  0  0  0  0  0
    4.1201   -6.1890    3.1398 H   0  0  0  0  0  0  0  0  0  0  0  0
    7.9305   -5.0549    1.2089 H   0  0  0  0  0  0  0  0  0  0  0  0
    9.5941   -3.5410    0.2005 H   0  0  0  0  0  0  0  0  0  0  0  0
    8.9768   -1.2013   -0.3126 H   0  0  0  0  0  0  0  0  0  0  0  0
    6.7194   -0.3426    0.1923 H   0  0  0  0  0  0  0  0  0  0  0  0
    5.0032   -1.8380    1.1387 H   0  0  0  0  0  0  0  0  0  0  0  0
    6.3830   -7.8302    1.9292 H   0  0  0  0  0  0  0  0  0  0  0  0
    5.0620   -9.7609    1.6156 H   0  0  0  0  0  0  0  0  0  0  0  0
    2.6055   -9.5882    1.8234 H   0  0  0  0  0  0  0  0  0  0  0  0
    3.9606  -10.6577    3.9885 H   0  0  0  0  0  0  0  0  0  0  0  0
    3.0898   -7.0551    2.6005 H   0  0  0  0  0  0  0  0  0  0  0  0
   -1.1302   -7.9835    4.2496 H   0  0  0  0  0  0  0  0  0  0  0  0
   -0.1219   -6.9698    3.2612 H   0  0  0  0  0  0  0  0  0  0  0  0
    0.1692   -7.0865    4.9855 H   0  0  0  0  0  0  0  0  0  0  0  0
   -0.8201   -9.6833    2.6709 H   0  0  0  0  0  0  0  0  0  0  0  0
    0.6981  -10.4419    2.2825 H   0  0  0  0  0  0  0  0  0  0  0  0
    0.3752   -8.8067    1.7150 H   0  0  0  0  0  0  0  0  0  0  0  0
   -0.5149   -9.8481    5.1620 H   0  0  0  0  0  0  0  0  0  0  0  0
    1.7740  -11.7119    4.6395 H   0  0  0  0  0  0  0  0  0  0  0  0
    0.1631  -11.7656    3.9332 H   0  0  0  0  0  0  0  0  0  0  0  0
    0.3459  -11.8948    5.6498 H   0  0  0  0  0  0  0  0  0  0  0  0
    0.6424   -8.4880    6.6389 H   0  0  0  0  0  0  0  0  0  0  0  0
    0.8868  -10.1184    7.1247 H   0  0  0  0  0  0  0  0  0  0  0  0
    2.8687   -8.7954    7.2612 H   0  0  0  0  0  0  0  0  0  0  0  0
    2.7660  -11.0640    6.6892 H   0  0  0  0  0  0  0  0  0  0  0  0
    2.7913   -6.7988    6.4621 H   0  0  0  0  0  0  0  0  0  0  0  0
    4.9210   -9.8153    5.3643 H   0  0  0  0  0  0  0  0  0  0  0  0
  1  2  2  0
  1 45  1  0
  1 46  1  0
  2 43  1  0
  2  3  1  0
  3  4  1  0
  3 47  1  0
  3 48  1  0
  4  5  1  0
  4  9  1  0
  4 49  1  1
  5  6  1  0
  6  7  1  0
  6  8  2  0
  7 50  1  0
  7 51  1  0
  7 52  1  0
  9 10  1  0
  9 14  1  0
  9 53  1  1
 10 11  1  0
 11 12  1  0
 11 13  2  0
 12 54  1  0
 12 55  1  0
 12 56  1  0
 14 43  1  0
 14 15  1  6
 14 16  1  0
 15 57  1  0
 15 58  1  0
 15 59  1  0
 16 17  1  0
 16 26  1  0
 16 60  1  1
 17 18  1  0
 18 19  2  0
 18 20  1  0
 20 25  1  0
 20 21  2  0
 21 22  1  0
 21 61  1  0
 22 23  2  0
 22 62  1  0
 23 24  1  0
 23 63  1  0
 24 25  2  0
 24 64  1  0
 25 65  1  0
 26 28  1  0
 26 27  1  0
 26 66  1  6
 27 28  1  0
 28 29  1  0
 28 67  1  6
 29 30  1  0
 29 31  1  0
 29 68  1  6
 30 69  1  0
 31 41  1  0
 31 32  1  6
 31 33  1  0
 32 70  1  0
 33 34  1  0
 33 35  1  0
 33 36  1  0
 34 71  1  0
 34 72  1  0
 34 73  1  0
 35 74  1  0
 35 75  1  0
 35 76  1  0
 36 37  1  0
 36 38  1  0
 36 77  1  1
 37 78  1  0
 37 79  1  0
 37 80  1  0
 38 39  1  0
 38 81  1  0
 38 82  1  0
 39 40  1  0
 39 41  1  0
 39 83  1  1
 40 84  1  0
 41 42  1  1
 41 43  1  0
 42 85  1  0
 43 44  1  6
 44 86  1  0
M  END
>  <i_m_ct_stereo_status>  (312) 
1

>  <s_m_source_file>  (312) 
/var/tmp/pbs.5083858.sched01/tmppqcd7fte/125e55c3yqz.sdf

>  <i_m_source_file_index>  (312) 
4

>  <i_lp_mmshare_version>  (312) 
48012

>  <i_f3d_flags>  (312) 
0

>  <s_epik_input>  (312) 
W0NIM11DKD1PKU9bQ0BASF0xW0NASF0oT0MoPU8pW0NIM10pW0NIMl1DKD1bQ0gyXSlbQ0BdKFtPSF0pKFtDQF0xMltDSDNdKVtDQEBdMyhbT0hdKVtDQF0oW09IXSkoQyhbQ0gzXSkoW0NIM10pW0NAQEhdKFtDSDNdKVtDSDJdW0NASF0zW09IXSlbQ0BIXShbT0hdKVtDQEBIXTRbQ0BASF0oTzQpW0NAQEhdMk9DKD1PKWM1W2NIXVtjSF1bY0hdW2NIXVtjSF01

>  <s_epik_cmdline>  (312) 
J2VwaWtfcHl0aG9uJywgJy1waHQnLCAnMi4wJywgJy1waCcsICc3LjAnLCAnLXRuJywgJzgnLCAnLW1hJywgJzIwMCcsICctaW1hZScsICc8aW5maWxlLm1hZT4nLCAnLW9tYWUnLCAnPG91dGZpbGUubWFlPic=

>  <r_lp_tautomer_probability>  (312) 
1

>  <r_epik_Ionization_Penalty>  (312) 
1.09959e-06

>  <r_epik_Ionization_Penalty_Charging>  (312) 
0

>  <r_epik_Ionization_Penalty_Neutral>  (312) 
1.09959e-06

>  <r_epik_State_Penalty>  (312) 
-0

>  <r_epik_Charging_Adjusted_Penalty>  (312) 
0

>  <i_epik_Tot_Q>  (312) 
0

>  <i_epik_Tot_abs_Q>  (312) 
0

>  <s_epik_Chemistry_Notes>  (312) 
This compound has an ester and may undergo hydrolysis at high or low pH.

>  <s_lp_Force_Field>  (312) 
OPLS3e

>  <r_lp_Energy>  (312) 
96.8489

>  <b_lp_Chiralities_Consistent>  (312) 
1

>  <s_lp_Variant>  (312) 
89:0-1

>  <s_i_glide_gridfile>  (312) 
pfpi4k_grid

>  <i_i_glide_lignum>  (312) 
4

>  <i_i_glide_rotatable_bonds>  (312) 
12

>  <r_i_docking_score>  (312) 
-3.24871

>  <r_i_glide_ligand_efficiency>  (312) 
-0.0738343

>  <r_i_glide_ligand_efficiency_sa>  (312) 
-0.260661

>  <r_i_glide_ligand_efficiency_ln>  (312) 
-0.679051

>  <r_i_glide_gscore>  (312) 
-3.24871

>  <r_i_glide_lipo>  (312) 
-0.532439

>  <r_i_glide_hbond>  (312) 
0

>  <r_i_glide_metal>  (312) 
-0

>  <r_i_glide_rewards>  (312) 
-1.09449

>  <r_i_glide_evdw>  (312) 
-29.2916

>  <r_i_glide_ecoul>  (312) 
-2.0129

>  <r_i_glide_erotb>  (312) 
0.144736

>  <r_i_glide_esite>  (312) 
0

>  <r_i_glide_emodel>  (312) 
-43.6334

>  <r_i_glide_energy>  (312) 
-31.3045

>  <r_i_glide_einternal>  (312) 
7.94413

>  <r_i_glide_intrahb_reward>  (312) 
-1

>  <i_i_glide_confnum>  (312) 
3

>  <i_i_glide_posenum>  (312) 
33

>  <r_i_glide_eff_state_penalty>  (312) 
0

>  <ligand_id>  (312) 
89

>  <original_smiles>  (312) 
C=C1CC(OC(C)=O)C(OC(C)=O)C2(C)C(OC(=O)c3ccccc3)C3OC3C(O)C3(O)C(C)(C)C(C)CC(O)C3(O)C12O

>  <smiles>  (312) 
[H]OC1([H])C([H])([H])C([H])(C([H])([H])[H])C(C([H])([H])[H])(C([H])([H])[H])C2(O[H])C([H])(O[H])C3([H])OC3([H])C([H])(OC(=O)c3c([H])c([H])c([H])c([H])c3[H])C3(C([H])([H])[H])C([H])(OC(=O)C([H])([H])[H])C([H])(OC(=O)C([H])([H])[H])C([H])([H])C(=C([H])[H])C3(O[H])C12O[H]

$$$$
89:0:2
     RDKit          3D

 86 90  0  0  1  0  0  0  0  0999 V2000
    6.2367   -8.9966    1.8977 C   0  0  0  0  0  0  0  0  0  0  0  0
    5.7939   -8.4355    3.0422 C   0  0  0  0  0  0  0  0  0  0  0  0
    6.5981   -8.6672    4.3070 C   0  0  0  0  0  0  0  0  0  0  0  0
    7.0686   -7.3437    4.8973 C   0  0  1  0  0  0  0  0  0  0  0  0
    8.2027   -6.8441    4.1833 O   0  0  0  0  0  0  0  0  0  0  0  0
    9.4757   -7.1221    4.5333 C   0  0  0  0  0  0  0  0  0  0  0  0
    9.6721   -8.0429    5.7295 C   0  0  0  0  0  0  0  0  0  0  0  0
   10.4686   -6.6786    3.9437 O   0  0  0  0  0  0  0  0  0  0  0  0
    5.9191   -6.3130    5.0022 C   0  0  1  0  0  0  0  0  0  0  0  0
    6.4840   -5.1436    5.5935 O   0  0  0  0  0  0  0  0  0  0  0  0
    6.6347   -4.9939    6.9307 C   0  0  0  0  0  0  0  0  0  0  0  0
    6.2252   -6.1770    7.8139 C   0  0  0  0  0  0  0  0  0  0  0  0
    7.0768   -3.9688    7.4466 O   0  0  0  0  0  0  0  0  0  0  0  0
    5.0965   -6.0759    3.6691 C   0  0  2  0  0  0  0  0  0  0  0  0
    6.0263   -5.4516    2.5847 C   0  0  0  0  0  0  0  0  0  0  0  0
    3.9627   -5.0503    3.9958 C   0  0  1  0  0  0  0  0  0  0  0  0
    4.4698   -3.7545    4.3397 O   0  0  0  0  0  0  0  0  0  0  0  0
    4.0041   -3.0440    5.4078 C   0  0  0  0  0  0  0  0  0  0  0  0
    3.1728   -3.4754    6.2125 O   0  0  0  0  0  0  0  0  0  0  0  0
    4.6454   -1.7043    5.5106 C   0  0  0  0  0  0  0  0  0  0  0  0
    5.1927   -1.0978    4.3662 C   0  0  0  0  0  0  0  0  0  0  0  0
    5.8102    0.1529    4.4475 C   0  0  0  0  0  0  0  0  0  0  0  0
    5.8838    0.8211    5.6832 C   0  0  0  0  0  0  0  0  0  0  0  0
    5.3370    0.2270    6.8326 C   0  0  0  0  0  0  0  0  0  0  0  0
    4.7202   -1.0298    6.7511 C   0  0  0  0  0  0  0  0  0  0  0  0
    3.0242   -4.7542    2.8497 C   0  0  2  0  0  0  0  0  0  0  0  0
    1.6791   -4.5328    3.2381 O   0  0  0  0  0  0  0  0  0  0  0  0
    1.8655   -5.5928    2.3144 C   0  0  2  0  0  0  0  0  0  0  0  0
    1.2725   -6.9295    2.7564 C   0  0  1  0  0  0  0  0  0  0  0  0
    1.2052   -7.7270    1.5922 O   0  0  0  0  0  0  0  0  0  0  0  0
    1.7893   -7.7198    4.0279 C   0  0  1  0  0  0  0  0  0  0  0  0
    1.6709   -6.7084    5.0163 O   0  0  0  0  0  0  0  0  0  0  0  0
    0.7063   -8.7765    4.6261 C   0  0  0  0  0  0  0  0  0  0  0  0
    0.7966   -8.9229    6.1867 C   0  0  0  0  0  0  0  0  0  0  0  0
   -0.7622   -8.3212    4.4032 C   0  0  0  0  0  0  0  0  0  0  0  0
    0.8560  -10.2350    4.0728 C   0  0  1  0  0  0  0  0  0  0  0  0
    0.2255  -10.5825    2.7139 C   0  0  0  0  0  0  0  0  0  0  0  0
    2.3019  -10.7215    4.1795 C   0  0  0  0  0  0  0  0  0  0  0  0
    3.3091   -9.8037    3.4716 C   0  0  1  0  0  0  0  0  0  0  0  0
    3.1784   -9.9105    2.0651 O   0  0  0  0  0  0  0  0  0  0  0  0
    3.3146   -8.2915    3.9412 C   0  0  2  0  0  0  0  0  0  0  0  0
    3.7197   -8.3812    5.2926 O   0  0  0  0  0  0  0  0  0  0  0  0
    4.5405   -7.5060    3.1687 C   0  0  2  0  0  0  0  0  0  0  0  0
    4.0914   -7.3206    1.8429 O   0  0  0  0  0  0  0  0  0  0  0  0
    5.7439   -8.8598    0.9491 H   0  0  0  0  0  0  0  0  0  0  0  0
    7.1296   -9.5986    1.9048 H   0  0  0  0  0  0  0  0  0  0  0  0
    6.0185   -9.1961    5.0557 H   0  0  0  0  0  0  0  0  0  0  0  0
    7.4497   -9.3172    4.1064 H   0  0  0  0  0  0  0  0  0  0  0  0
    7.3667   -7.5404    5.9202 H   0  0  0  0  0  0  0  0  0  0  0  0
    9.2425   -9.0287    5.5341 H   0  0  0  0  0  0  0  0  0  0  0  0
    9.2006   -7.6201    6.6217 H   0  0  0  0  0  0  0  0  0  0  0  0
   10.7426   -8.1954    5.9391 H   0  0  0  0  0  0  0  0  0  0  0  0
    5.2195   -6.6655    5.7426 H   0  0  0  0  0  0  0  0  0  0  0  0
    5.3265   -6.6642    7.4336 H   0  0  0  0  0  0  0  0  0  0  0  0
    6.0769   -5.8632    8.8622 H   0  0  0  0  0  0  0  0  0  0  0  0
    7.0333   -6.9134    7.8621 H   0  0  0  0  0  0  0  0  0  0  0  0
    5.4789   -5.0747    1.7216 H   0  0  0  0  0  0  0  0  0  0  0  0
    6.7629   -6.1507    2.2102 H   0  0  0  0  0  0  0  0  0  0  0  0
    6.5853   -4.6242    3.0020 H   0  0  0  0  0  0  0  0  0  0  0  0
    3.4414   -5.4108    4.8663 H   0  0  0  0  0  0  0  0  0  0  0  0
    5.1558   -1.5925    3.4040 H   0  0  0  0  0  0  0  0  0  0  0  0
    6.2348    0.5967    3.5603 H   0  0  0  0  0  0  0  0  0  0  0  0
    6.3641    1.7913    5.7423 H   0  0  0  0  0  0  0  0  0  0  0  0
    5.3989    0.7468    7.7817 H   0  0  0  0  0  0  0  0  0  0  0  0
    4.3098   -1.4856    7.6400 H   0  0  0  0  0  0  0  0  0  0  0  0
    3.4149   -4.0614    2.1252 H   0  0  0  0  0  0  0  0  0  0  0  0
    1.5961   -5.3332    1.3088 H   0  0  0  0  0  0  0  0  0  0  0  0
    0.2372   -6.6365    2.9147 H   0  0  0  0  0  0  0  0  0  0  0  0
    2.0112   -8.2266    1.5353 H   0  0  0  0  0  0  0  0  0  0  0  0
    2.2298   -5.9848    4.7942 H   0  0  0  0  0  0  0  0  0  0  0  0
    0.1123   -9.6854    6.5533 H   0  0  0  0  0  0  0  0  0  0  0  0
    0.5200   -8.0098    6.7150 H   0  0  0  0  0  0  0  0  0  0  0  0
    1.7794   -9.2071    6.5404 H   0  0  0  0  0  0  0  0  0  0  0  0
   -1.4462   -9.0193    4.8823 H   0  0  0  0  0  0  0  0  0  0  0  0
   -1.0481   -8.2950    3.3553 H   0  0  0  0  0  0  0  0  0  0  0  0
   -0.9571   -7.3374    4.8321 H   0  0  0  0  0  0  0  0  0  0  0  0
    0.2885  -10.8757    4.7496 H   0  0  0  0  0  0  0  0  0  0  0  0
    0.6711  -10.0569    1.8849 H   0  0  0  0  0  0  0  0  0  0  0  0
   -0.8432  -10.3817    2.6994 H   0  0  0  0  0  0  0  0  0  0  0  0
    0.3533  -11.6451    2.5084 H   0  0  0  0  0  0  0  0  0  0  0  0
    2.5697  -10.8097    5.2315 H   0  0  0  0  0  0  0  0  0  0  0  0
    2.3817  -11.7444    3.8028 H   0  0  0  0  0  0  0  0  0  0  0  0
    4.2634  -10.2715    3.7183 H   0  0  0  0  0  0  0  0  0  0  0  0
    3.3891  -10.8071    1.8042 H   0  0  0  0  0  0  0  0  0  0  0  0
    4.4723   -8.9500    5.3422 H   0  0  0  0  0  0  0  0  0  0  0  0
    3.9073   -8.1961    1.5159 H   0  0  0  0  0  0  0  0  0  0  0  0
  1  2  2  0
  1 45  1  0
  1 46  1  0
  2 43  1  0
  2  3  1  0
  3  4  1  0
  3 47  1  0
  3 48  1  0
  4  5  1  0
  4  9  1  0
  4 49  1  1
  5  6  1  0
  6  7  1  0
  6  8  2  0
  7 50  1  0
  7 51  1  0
  7 52  1  0
  9 10  1  0
  9 14  1  0
  9 53  1  1
 10 11  1  0
 11 12  1  0
 11 13  2  0
 12 54  1  0
 12 55  1  0
 12 56  1  0
 14 43  1  0
 14 15  1  6
 14 16  1  0
 15 57  1  0
 15 58  1  0
 15 59  1  0
 16 17  1  0
 16 26  1  0
 16 60  1  1
 17 18  1  0
 18 19  2  0
 18 20  1  0
 20 25  1  0
 20 21  2  0
 21 22  1  0
 21 61  1  0
 22 23  2  0
 22 62  1  0
 23 24  1  0
 23 63  1  0
 24 25  2  0
 24 64  1  0
 25 65  1  0
 26 28  1  0
 26 27  1  0
 26 66  1  6
 27 28  1  0
 28 29  1  0
 28 67  1  6
 29 30  1  0
 29 31  1  0
 29 68  1  1
 30 69  1  0
 31 41  1  0
 31 32  1  1
 31 33  1  0
 32 70  1  0
 33 34  1  0
 33 35  1  0
 33 36  1  0
 34 71  1  0
 34 72  1  0
 34 73  1  0
 35 74  1  0
 35 75  1  0
 35 76  1  0
 36 37  1  0
 36 38  1  0
 36 77  1  1
 37 78  1  0
 37 79  1  0
 37 80  1  0
 38 39  1  0
 38 81  1  0
 38 82  1  0
 39 40  1  0
 39 41  1  0
 39 83  1  6
 40 84  1  0
 41 42  1  1
 41 43  1  0
 42 85  1  0
 43 44  1  6
 44 86  1  0
M  END
>  <i_m_ct_stereo_status>  (313) 
1

>  <s_m_source_file>  (313) 
/var/tmp/pbs.5083858.sched01/tmppqcd7fte/125e55c3yqz.sdf

>  <i_m_source_file_index>  (313) 
4

>  <i_lp_mmshare_version>  (313) 
48012

>  <i_f3d_flags>  (313) 
0

>  <s_epik_input>  (313) 
W0NIM11DKD1PKU9bQ0BASF0xW0NASF0oT0MoPU8pW0NIM10pW0NIMl1DKD1bQ0gyXSlbQ0BdKFtPSF0pKFtDQF0xMltDSDNdKVtDQEBdMyhbT0hdKVtDQF0oW09IXSkoQyhbQ0gzXSkoW0NIM10pW0NAQEhdKFtDSDNdKVtDSDJdW0NASF0zW09IXSlbQ0BIXShbT0hdKVtDQEBIXTRbQ0BASF0oTzQpW0NAQEhdMk9DKD1PKWM1W2NIXVtjSF1bY0hdW2NIXVtjSF01

>  <s_epik_cmdline>  (313) 
J2VwaWtfcHl0aG9uJywgJy1waHQnLCAnMi4wJywgJy1waCcsICc3LjAnLCAnLXRuJywgJzgnLCAnLW1hJywgJzIwMCcsICctaW1hZScsICc8aW5maWxlLm1hZT4nLCAnLW9tYWUnLCAnPG91dGZpbGUubWFlPic=

>  <r_lp_tautomer_probability>  (313) 
1

>  <r_epik_Ionization_Penalty>  (313) 
1.09959e-06

>  <r_epik_Ionization_Penalty_Charging>  (313) 
0

>  <r_epik_Ionization_Penalty_Neutral>  (313) 
1.09959e-06

>  <r_epik_State_Penalty>  (313) 
-0

>  <r_epik_Charging_Adjusted_Penalty>  (313) 
0

>  <i_epik_Tot_Q>  (313) 
0

>  <i_epik_Tot_abs_Q>  (313) 
0

>  <s_epik_Chemistry_Notes>  (313) 
This compound has an ester and may undergo hydrolysis at high or low pH.

>  <s_lp_Force_Field>  (313) 
OPLS3e

>  <r_lp_Energy>  (313) 
96.8489

>  <b_lp_Chiralities_Consistent>  (313) 
1

>  <s_lp_Variant>  (313) 
89:0-1

>  <s_i_glide_gridfile>  (313) 
pfpi4k_grid

>  <i_i_glide_lignum>  (313) 
4

>  <i_i_glide_rotatable_bonds>  (313) 
12

>  <r_i_docking_score>  (313) 
-3.055

>  <r_i_glide_ligand_efficiency>  (313) 
-0.0694318

>  <r_i_glide_ligand_efficiency_sa>  (313) 
-0.245118

>  <r_i_glide_ligand_efficiency_ln>  (313) 
-0.638561

>  <r_i_glide_gscore>  (313) 
-3.055

>  <r_i_glide_lipo>  (313) 
-0.473334

>  <r_i_glide_hbond>  (313) 
0

>  <r_i_glide_metal>  (313) 
-0

>  <r_i_glide_rewards>  (313) 
-1.00568

>  <r_i_glide_evdw>  (313) 
-32.2051

>  <r_i_glide_ecoul>  (313) 
-0.696686

>  <r_i_glide_erotb>  (313) 
0.144736

>  <r_i_glide_esite>  (313) 
-0.0059619

>  <r_i_glide_emodel>  (313) 
-43.0296

>  <r_i_glide_energy>  (313) 
-32.9018

>  <r_i_glide_einternal>  (313) 
12.4103

>  <r_i_glide_intrahb_reward>  (313) 
-1

>  <i_i_glide_confnum>  (313) 
1

>  <i_i_glide_posenum>  (313) 
23

>  <r_i_glide_eff_state_penalty>  (313) 
0

>  <ligand_id>  (313) 
89

>  <original_smiles>  (313) 
C=C1CC(OC(C)=O)C(OC(C)=O)C2(C)C(OC(=O)c3ccccc3)C3OC3C(O)C3(O)C(C)(C)C(C)CC(O)C3(O)C12O

>  <smiles>  (313) 
[H]OC1([H])C([H])([H])C([H])(C([H])([H])[H])C(C([H])([H])[H])(C([H])([H])[H])C2(O[H])C([H])(O[H])C3([H])OC3([H])C([H])(OC(=O)c3c([H])c([H])c([H])c([H])c3[H])C3(C([H])([H])[H])C([H])(OC(=O)C([H])([H])[H])C([H])(OC(=O)C([H])([H])[H])C([H])([H])C(=C([H])[H])C3(O[H])C12O[H]

$$$$
90:0:0
     RDKit          3D

 80 88  0  0  1  0  0  0  0  0999 V2000
    3.2640   -4.6206    8.7836 C   0  0  0  0  0  0  0  0  0  0  0  0
    3.2574   -4.3283    7.3955 O   0  0  0  0  0  0  0  0  0  0  0  0
    3.8548   -5.1962    6.5350 C   0  0  0  0  0  0  0  0  0  0  0  0
    4.4778   -6.1910    6.9067 O   0  0  0  0  0  0  0  0  0  0  0  0
    3.6976   -4.7795    5.0358 C   0  0  2  0  0  0  0  0  0  0  0  0
    4.1142   -3.2531    4.9959 C   0  0  0  0  0  0  0  0  0  0  0  0
    4.7352   -3.0651    3.6277 C   0  0  0  0  0  0  0  0  0  0  0  0
    4.3348   -4.3922    3.0469 C   0  0  2  0  0  0  0  0  0  0  0  0
    4.9533   -4.7465    1.8243 O   0  0  0  0  0  0  0  0  0  0  0  0
    4.9752   -3.7960    0.7722 C   0  0  2  0  0  0  0  0  0  0  0  0
    3.7148   -3.5903    0.1724 O   0  0  0  0  0  0  0  0  0  0  0  0
    3.6719   -2.5283   -0.8063 C   0  0  1  0  0  0  0  0  0  0  0  0
    3.9126   -1.1222   -0.1498 C   0  0  0  0  0  0  0  0  0  0  0  0
    2.9011   -0.7921    0.7891 O   0  0  0  0  0  0  0  0  0  0  0  0
    4.6329   -2.8841   -1.9681 C   0  0  1  0  0  0  0  0  0  0  0  0
    4.6022   -1.9220   -3.0297 O   0  0  0  0  0  0  0  0  0  0  0  0
    6.0640   -3.1255   -1.4514 C   0  0  1  0  0  0  0  0  0  0  0  0
    6.6608   -1.8807   -1.0657 O   0  0  0  0  0  0  0  0  0  0  0  0
    6.0283   -4.1796   -0.2933 C   0  0  1  0  0  0  0  0  0  0  0  0
    7.2932   -4.2767    0.3557 O   0  0  0  0  0  0  0  0  0  0  0  0
    2.9020   -4.2712    3.0003 O   0  0  0  0  0  0  0  0  0  0  0  0
    2.5020   -5.2000    3.9737 C   0  0  1  0  0  0  0  0  0  0  0  0
    2.8253   -6.4478    3.1004 C   0  0  0  0  0  0  0  0  0  0  0  0
    3.9016   -6.8088    3.7435 C   0  0  0  0  0  0  0  0  0  0  0  0
    3.2281   -7.8837    4.4429 C   0  0  0  0  0  0  0  0  0  0  0  0
    3.3452   -8.5175    3.2889 N   0  0  0  0  0  0  0  0  0  0  0  0
    3.7448   -9.9334    3.1912 C   0  0  0  0  0  0  0  0  0  0  0  0
    2.5368   -7.6888    2.5102 C   0  0  0  0  0  0  0  0  0  0  0  0
    1.4169   -8.3490    1.8245 C   0  0  2  0  0  0  0  0  0  0  0  0
    0.1390   -7.5295    1.8414 C   0  0  0  0  0  0  0  0  0  0  0  0
   -0.6171   -8.2316    2.9661 C   0  0  0  0  0  0  0  0  0  0  0  0
   -1.7209   -7.3158    3.5298 C   0  0  0  0  0  0  0  0  0  0  0  0
   -1.4537   -9.3951    2.3383 C   0  0  0  0  0  0  0  0  0  0  0  0
    0.5581   -8.8418    3.8876 C   0  0  1  0  0  0  0  0  0  0  0  0
    1.1153   -9.4288    2.7136 O   0  0  0  0  0  0  0  0  0  0  0  0
    1.6043   -8.0014    4.8780 C   0  0  2  0  0  0  0  0  0  0  0  0
    0.8010   -6.7249    5.1596 C   0  0  1  0  0  0  0  0  0  0  0  0
    0.9892   -5.6668    6.1666 C   0  0  0  0  0  0  0  0  0  0  0  0
    1.1541   -5.3269    4.6721 C   0  0  1  0  0  0  0  0  0  0  0  0
    4.6276   -5.5129    4.1656 C   0  0  2  0  0  0  0  0  0  0  0  0
    6.1418   -5.6168    4.4701 C   0  0  0  0  0  0  0  0  0  0  0  0
    2.6488   -3.8910    9.3094 H   0  0  0  0  0  0  0  0  0  0  0  0
    4.2785   -4.5851    9.1843 H   0  0  0  0  0  0  0  0  0  0  0  0
    2.8519   -5.6146    8.9702 H   0  0  0  0  0  0  0  0  0  0  0  0
    3.2509   -2.5881    5.1271 H   0  0  0  0  0  0  0  0  0  0  0  0
    4.8500   -2.9674    5.7451 H   0  0  0  0  0  0  0  0  0  0  0  0
    4.2404   -2.2610    3.0871 H   0  0  0  0  0  0  0  0  0  0  0  0
    5.8188   -2.9394    3.6289 H   0  0  0  0  0  0  0  0  0  0  0  0
    5.2690   -2.8405    1.2021 H   0  0  0  0  0  0  0  0  0  0  0  0
    2.6688   -2.5564   -1.2470 H   0  0  0  0  0  0  0  0  0  0  0  0
    4.8768   -1.0538    0.3844 H   0  0  0  0  0  0  0  0  0  0  0  0
    3.9105   -0.3409   -0.9151 H   0  0  0  0  0  0  0  0  0  0  0  0
    2.0260   -0.7778    0.3248 H   0  0  0  0  0  0  0  0  0  0  0  0
    4.2939   -3.8235   -2.3974 H   0  0  0  0  0  0  0  0  0  0  0  0
    3.6852   -1.7407   -3.2882 H   0  0  0  0  0  0  0  0  0  0  0  0
    6.6661   -3.5419   -2.2648 H   0  0  0  0  0  0  0  0  0  0  0  0
    6.1791   -1.5028   -0.3056 H   0  0  0  0  0  0  0  0  0  0  0  0
    5.7727   -5.1612   -0.7033 H   0  0  0  0  0  0  0  0  0  0  0  0
    7.9813   -4.4640   -0.2957 H   0  0  0  0  0  0  0  0  0  0  0  0
    3.4256  -10.3214    2.2261 H   0  0  0  0  0  0  0  0  0  0  0  0
    3.3477  -10.5872    3.9779 H   0  0  0  0  0  0  0  0  0  0  0  0
    4.8308   -9.9413    3.1926 H   0  0  0  0  0  0  0  0  0  0  0  0
    1.7345   -8.6672    0.8377 H   0  0  0  0  0  0  0  0  0  0  0  0
    0.3315   -6.4787    2.0725 H   0  0  0  0  0  0  0  0  0  0  0  0
   -0.3656   -7.5855    0.8767 H   0  0  0  0  0  0  0  0  0  0  0  0
   -2.1540   -7.7263    4.4414 H   0  0  0  0  0  0  0  0  0  0  0  0
   -2.5280   -7.2222    2.8039 H   0  0  0  0  0  0  0  0  0  0  0  0
   -1.3794   -6.3020    3.7143 H   0  0  0  0  0  0  0  0  0  0  0  0
   -2.0280   -9.8934    3.1108 H   0  0  0  0  0  0  0  0  0  0  0  0
   -0.8745  -10.1528    1.8083 H   0  0  0  0  0  0  0  0  0  0  0  0
   -2.1755   -9.0366    1.6098 H   0  0  0  0  0  0  0  0  0  0  0  0
    0.1494   -9.6534    4.4854 H   0  0  0  0  0  0  0  0  0  0  0  0
    1.6393   -8.5707    5.8238 H   0  0  0  0  0  0  0  0  0  0  0  0
   -0.2032   -7.0146    5.3621 H   0  0  0  0  0  0  0  0  0  0  0  0
    0.0925   -5.2314    6.6106 H   0  0  0  0  0  0  0  0  0  0  0  0
    1.6276   -6.1523    6.8922 H   0  0  0  0  0  0  0  0  0  0  0  0
    0.3601   -4.7326    4.2350 H   0  0  0  0  0  0  0  0  0  0  0  0
    6.5402   -4.6646    4.8249 H   0  0  0  0  0  0  0  0  0  0  0  0
    6.6655   -5.8439    3.5423 H   0  0  0  0  0  0  0  0  0  0  0  0
    6.4208   -6.3695    5.2180 H   0  0  0  0  0  0  0  0  0  0  0  0
  1  2  1  0
  1 42  1  0
  1 43  1  0
  1 44  1  0
  2  3  1  0
  3  4  2  0
  5  3  1  1
  5 22  1  0
  5 40  1  0
  5  6  1  0
  6  7  1  0
  6 45  1  0
  6 46  1  0
  7  8  1  0
  7 47  1  0
  7 48  1  0
  8 40  1  0
  8  9  1  6
  8 21  1  0
  9 10  1  0
 10 19  1  0
 10 11  1  0
 10 49  1  1
 11 12  1  0
 12 13  1  0
 12 15  1  0
 12 50  1  6
 13 14  1  0
 13 51  1  0
 13 52  1  0
 14 53  1  0
 15 16  1  0
 15 17  1  0
 15 54  1  6
 16 55  1  0
 17 18  1  0
 17 19  1  0
 17 56  1  6
 18 57  1  0
 19 20  1  0
 19 58  1  6
 20 59  1  0
 22 21  1  6
 22 39  1  0
 22 23  1  0
 23 28  2  0
 23 24  1  0
 24 25  2  0
 24 40  1  0
 25 36  1  0
 25 26  1  0
 26 27  1  0
 26 28  1  0
 27 60  1  0
 27 61  1  0
 27 62  1  0
 28 29  1  0
 29 35  1  0
 29 30  1  0
 29 63  1  6
 30 31  1  0
 30 64  1  0
 30 65  1  0
 31 32  1  0
 31 33  1  0
 31 34  1  0
 32 66  1  0
 32 67  1  0
 32 68  1  0
 33 69  1  0
 33 70  1  0
 33 71  1  0
 34 35  1  0
 34 36  1  0
 34 72  1  1
 36 37  1  0
 36 73  1  1
 37 39  1  0
 37 38  1  0
 37 74  1  6
 38 39  1  0
 38 75  1  0
 38 76  1  0
 39 77  1  6
 40 41  1  1
 41 78  1  0
 41 79  1  0
 41 80  1  0
M  END
>  <i_m_ct_stereo_status>  (314) 
1

>  <s_m_source_file>  (314) 
/var/tmp/pbs.5083858.sched01/tmppqcd7fte/125e55c3yqz.sdf

>  <i_m_source_file_index>  (314) 
5

>  <i_lp_mmshare_version>  (314) 
48012

>  <i_f3d_flags>  (314) 
0

>  <s_epik_input>  (314) 
W09IXVtDQEBIXTFbQ0BIXShbT0hdKVtDQEhdKFtPSF0pW0NASF0oW0NIMl1bT0hdKU9bQ0BIXTFPW0NAXShPMikoW0NIMl1bQ0gyXTMpW0NAQF0oW0NIM10pKFtDQEBdMyhDMjQ1KUMoPU8pT1tDSDNdKWM2YzRjN1tDQEBIXThbQ0gyXUMoW0NIM10pKFtDSDNdKVtDQEBIXShPOClbQ0hdKGM2bjdbQ0gzXSlbQ0BASF05W0NIXTVbQ0gyXTk=

>  <s_epik_cmdline>  (314) 
J2VwaWtfcHl0aG9uJywgJy1waHQnLCAnMi4wJywgJy1waCcsICc3LjAnLCAnLXRuJywgJzgnLCAnLW1hJywgJzIwMCcsICctaW1hZScsICc8aW5maWxlLm1hZT4nLCAnLW9tYWUnLCAnPG91dGZpbGUubWFlPic=

>  <r_lp_tautomer_probability>  (314) 
1

>  <r_epik_Ionization_Penalty>  (314) 
4.93662e-06

>  <r_epik_Ionization_Penalty_Charging>  (314) 
0

>  <r_epik_Ionization_Penalty_Neutral>  (314) 
4.93662e-06

>  <r_epik_State_Penalty>  (314) 
-0

>  <r_epik_Charging_Adjusted_Penalty>  (314) 
0

>  <i_epik_Tot_Q>  (314) 
0

>  <i_epik_Tot_abs_Q>  (314) 
0

>  <s_epik_Chemistry_Notes>  (314) 
This compound has an ester and may undergo hydrolysis at high or low pH. This compound contains an acetal/aminal-like group ( X-CH(R)-Y where X, Y are N, S, or O) that may be acid/base labile, releasing an aldehyde.

>  <s_lp_Force_Field>  (314) 
OPLS3e

>  <r_lp_Energy>  (314) 
277.07

>  <b_lp_Chiralities_Consistent>  (314) 
1

>  <s_lp_Variant>  (314) 
90:0-1

>  <s_i_glide_gridfile>  (314) 
pfpi4k_grid

>  <i_i_glide_lignum>  (314) 
5

>  <i_i_glide_rotatable_bonds>  (314) 
9

>  <r_i_docking_score>  (314) 
-2.91965

>  <r_i_glide_ligand_efficiency>  (314) 
-0.0712111

>  <r_i_glide_ligand_efficiency_sa>  (314) 
-0.245551

>  <r_i_glide_ligand_efficiency_ln>  (314) 
-0.619414

>  <r_i_glide_gscore>  (314) 
-2.91965

>  <r_i_glide_lipo>  (314) 
-0.474808

>  <r_i_glide_hbond>  (314) 
0

>  <r_i_glide_metal>  (314) 
-0

>  <r_i_glide_rewards>  (314) 
-0.0546845

>  <r_i_glide_evdw>  (314) 
-27.6821

>  <r_i_glide_ecoul>  (314) 
-8.07188

>  <r_i_glide_erotb>  (314) 
0.160243

>  <r_i_glide_esite>  (314) 
-0.00254177

>  <r_i_glide_emodel>  (314) 
-38.4009

>  <r_i_glide_energy>  (314) 
-35.754

>  <r_i_glide_einternal>  (314) 
2.4169

>  <r_i_glide_intrahb_reward>  (314) 
-0

>  <i_i_glide_confnum>  (314) 
2

>  <i_i_glide_posenum>  (314) 
12

>  <r_i_glide_eff_state_penalty>  (314) 
0

>  <ligand_id>  (314) 
90

>  <original_smiles>  (314) 
COC(=O)C12CCC3(OC4OC(CO)C(O)C(O)C4O)OC14c1c(c5n(C)c1C1CC(C)(C)C(O1)C5C1CC14)C32C

>  <smiles>  (314) 
[H]OC([H])([H])C1([H])OC([H])(OC23OC45c6c(c7n(C([H])([H])[H])c6C6([H])OC([H])(C7([H])C7([H])C([H])([H])C47[H])C(C([H])([H])[H])(C([H])([H])[H])C6([H])[H])C2(C([H])([H])[H])C5(C(=O)OC([H])([H])[H])C([H])([H])C3([H])[H])C([H])(O[H])C([H])(O[H])C1([H])O[H]

$$$$
90:0:1
     RDKit          3D

 80 88  0  0  1  0  0  0  0  0999 V2000
    9.2190   -5.5624    1.6160 C   0  0  0  0  0  0  0  0  0  0  0  0
    8.1208   -6.4618    1.6738 O   0  0  0  0  0  0  0  0  0  0  0  0
    7.5592   -6.7098    2.8686 C   0  0  0  0  0  0  0  0  0  0  0  0
    8.0996   -6.4294    3.9394 O   0  0  0  0  0  0  0  0  0  0  0  0
    6.1467   -7.3852    2.7653 C   0  0  2  0  0  0  0  0  0  0  0  0
    6.3505   -8.7044    1.9033 C   0  0  0  0  0  0  0  0  0  0  0  0
    5.3157   -9.6939    2.4230 C   0  0  0  0  0  0  0  0  0  0  0  0
    4.5620   -8.7157    3.2764 C   0  0  2  0  0  0  0  0  0  0  0  0
    3.6251   -9.3053    4.1558 O   0  0  0  0  0  0  0  0  0  0  0  0
    2.5823  -10.0975    3.6085 C   0  0  2  0  0  0  0  0  0  0  0  0
    1.8163   -9.4439    2.6057 O   0  0  0  0  0  0  0  0  0  0  0  0
    1.1060   -8.2770    3.0291 C   0  0  1  0  0  0  0  0  0  0  0  0
    0.5207   -7.6062    1.7651 C   0  0  0  0  0  0  0  0  0  0  0  0
    0.0921   -6.2811    2.0390 O   0  0  0  0  0  0  0  0  0  0  0  0
    0.0723   -8.6541    4.1003 C   0  0  1  0  0  0  0  0  0  0  0  0
   -1.0084   -9.3796    3.5079 O   0  0  0  0  0  0  0  0  0  0  0  0
    0.7611   -9.4418    5.2403 C   0  0  1  0  0  0  0  0  0  0  0  0
   -0.1798   -9.8172    6.2371 O   0  0  0  0  0  0  0  0  0  0  0  0
    1.6237  -10.6136    4.7225 C   0  0  1  0  0  0  0  0  0  0  0  0
    0.8030  -11.6429    4.1781 O   0  0  0  0  0  0  0  0  0  0  0  0
    4.0017   -7.8347    2.2947 O   0  0  0  0  0  0  0  0  0  0  0  0
    4.6786   -6.6422    2.5554 C   0  0  1  0  0  0  0  0  0  0  0  0
    3.9272   -6.3263    3.8928 C   0  0  0  0  0  0  0  0  0  0  0  0
    4.9058   -6.6161    4.7260 C   0  0  0  0  0  0  0  0  0  0  0  0
    5.2362   -5.2176    4.9435 C   0  0  0  0  0  0  0  0  0  0  0  0
    4.1587   -5.2295    5.7241 N   0  0  0  0  0  0  0  0  0  0  0  0
    4.1373   -4.6286    7.0464 C   0  0  0  0  0  0  0  0  0  0  0  0
    3.1965   -5.4966    4.7415 C   0  0  0  0  0  0  0  0  0  0  0  0
    2.1031   -4.5099    4.6935 C   0  0  2  0  0  0  0  0  0  0  0  0
    1.7009   -4.1319    3.2879 C   0  0  0  0  0  0  0  0  0  0  0  0
    2.3827   -2.7916    3.0977 C   0  0  0  0  0  0  0  0  0  0  0  0
    2.5321   -2.4897    1.5855 C   0  0  0  0  0  0  0  0  0  0  0  0
    1.4049   -1.6806    3.5864 C   0  0  0  0  0  0  0  0  0  0  0  0
    3.6352   -2.9214    4.1052 C   0  0  1  0  0  0  0  0  0  0  0  0
    2.7404   -3.3160    5.1481 O   0  0  0  0  0  0  0  0  0  0  0  0
    4.9850   -3.9047    3.9292 C   0  0  2  0  0  0  0  0  0  0  0  0
    4.9754   -4.0890    2.3875 C   0  0  1  0  0  0  0  0  0  0  0  0
    6.0440   -4.5739    1.5194 C   0  0  0  0  0  0  0  0  0  0  0  0
    4.7768   -5.4144    1.6666 C   0  0  1  0  0  0  0  0  0  0  0  0
    5.6403   -7.8139    4.0866 C   0  0  2  0  0  0  0  0  0  0  0  0
    6.4710   -8.7047    5.0517 C   0  0  0  0  0  0  0  0  0  0  0  0
    9.4351   -5.3691    0.5664 H   0  0  0  0  0  0  0  0  0  0  0  0
   10.1084   -5.9155    2.1442 H   0  0  0  0  0  0  0  0  0  0  0  0
    8.9520   -4.6016    2.0621 H   0  0  0  0  0  0  0  0  0  0  0  0
    6.1661   -8.5105    0.8483 H   0  0  0  0  0  0  0  0  0  0  0  0
    7.3372   -9.1516    1.9947 H   0  0  0  0  0  0  0  0  0  0  0  0
    4.6457  -10.0741    1.6542 H   0  0  0  0  0  0  0  0  0  0  0  0
    5.7059  -10.5107    3.0209 H   0  0  0  0  0  0  0  0  0  0  0  0
    3.0618  -10.9339    3.0912 H   0  0  0  0  0  0  0  0  0  0  0  0
    1.8140   -7.6045    3.4973 H   0  0  0  0  0  0  0  0  0  0  0  0
    1.2706   -7.5559    0.9725 H   0  0  0  0  0  0  0  0  0  0  0  0
   -0.3195   -8.1702    1.3638 H   0  0  0  0  0  0  0  0  0  0  0  0
    0.8359   -5.8306    2.4521 H   0  0  0  0  0  0  0  0  0  0  0  0
   -0.3164   -7.7308    4.5284 H   0  0  0  0  0  0  0  0  0  0  0  0
   -1.4677   -9.9408    4.1608 H   0  0  0  0  0  0  0  0  0  0  0  0
    1.4787   -8.7585    5.7061 H   0  0  0  0  0  0  0  0  0  0  0  0
   -0.8749  -10.3806    5.8148 H   0  0  0  0  0  0  0  0  0  0  0  0
    2.2208  -11.0466    5.5336 H   0  0  0  0  0  0  0  0  0  0  0  0
    0.1333  -11.8849    4.8276 H   0  0  0  0  0  0  0  0  0  0  0  0
    3.0892   -4.4681    7.3383 H   0  0  0  0  0  0  0  0  0  0  0  0
    4.6629   -3.6733    7.1364 H   0  0  0  0  0  0  0  0  0  0  0  0
    4.5336   -5.3578    7.7514 H   0  0  0  0  0  0  0  0  0  0  0  0
    1.2807   -4.8343    5.3231 H   0  0  0  0  0  0  0  0  0  0  0  0
    2.0879   -4.8479    2.5628 H   0  0  0  0  0  0  0  0  0  0  0  0
    0.6198   -4.0452    3.2270 H   0  0  0  0  0  0  0  0  0  0  0  0
    3.1667   -1.6259    1.3978 H   0  0  0  0  0  0  0  0  0  0  0  0
    1.5641   -2.2569    1.1527 H   0  0  0  0  0  0  0  0  0  0  0  0
    2.8765   -3.3389    1.0003 H   0  0  0  0  0  0  0  0  0  0  0  0
    1.8456   -0.6931    3.4846 H   0  0  0  0  0  0  0  0  0  0  0  0
    1.0776   -1.7901    4.6199 H   0  0  0  0  0  0  0  0  0  0  0  0
    0.4890   -1.6765    3.0023 H   0  0  0  0  0  0  0  0  0  0  0  0
    3.9913   -1.9197    4.3342 H   0  0  0  0  0  0  0  0  0  0  0  0
    5.8253   -3.2360    4.1436 H   0  0  0  0  0  0  0  0  0  0  0  0
    4.7985   -3.1279    1.9259 H   0  0  0  0  0  0  0  0  0  0  0  0
    6.1588   -4.1197    0.5306 H   0  0  0  0  0  0  0  0  0  0  0  0
    6.8820   -4.4042    2.1820 H   0  0  0  0  0  0  0  0  0  0  0  0
    4.1073   -5.4216    0.8088 H   0  0  0  0  0  0  0  0  0  0  0  0
    6.9952   -9.5010    4.5160 H   0  0  0  0  0  0  0  0  0  0  0  0
    5.7960   -9.1962    5.7488 H   0  0  0  0  0  0  0  0  0  0  0  0
    7.2213   -8.1636    5.6382 H   0  0  0  0  0  0  0  0  0  0  0  0
  1  2  1  0
  1 42  1  0
  1 43  1  0
  1 44  1  0
  2  3  1  0
  3  4  2  0
  5  3  1  1
  5 22  1  0
  5 40  1  0
  5  6  1  0
  6  7  1  0
  6 45  1  0
  6 46  1  0
  7  8  1  0
  7 47  1  0
  7 48  1  0
  8 40  1  0
  8  9  1  1
  8 21  1  0
  9 10  1  0
 10 19  1  0
 10 11  1  0
 10 49  1  6
 11 12  1  0
 12 13  1  0
 12 15  1  0
 12 50  1  1
 13 14  1  0
 13 51  1  0
 13 52  1  0
 14 53  1  0
 15 16  1  0
 15 17  1  0
 15 54  1  1
 16 55  1  0
 17 18  1  0
 17 19  1  0
 17 56  1  1
 18 57  1  0
 19 20  1  0
 19 58  1  1
 20 59  1  0
 22 21  1  6
 22 39  1  0
 22 23  1  0
 23 28  2  0
 23 24  1  0
 24 25  2  0
 24 40  1  0
 25 36  1  0
 25 26  1  0
 26 27  1  0
 26 28  1  0
 27 60  1  0
 27 61  1  0
 27 62  1  0
 28 29  1  0
 29 35  1  0
 29 30  1  0
 29 63  1  1
 30 31  1  0
 30 64  1  0
 30 65  1  0
 31 32  1  0
 31 33  1  0
 31 34  1  0
 32 66  1  0
 32 67  1  0
 32 68  1  0
 33 69  1  0
 33 70  1  0
 33 71  1  0
 34 35  1  0
 34 36  1  0
 34 72  1  1
 36 37  1  0
 36 73  1  6
 37 39  1  0
 37 38  1  0
 37 74  1  6
 38 39  1  0
 38 75  1  0
 38 76  1  0
 39 77  1  6
 40 41  1  1
 41 78  1  0
 41 79  1  0
 41 80  1  0
M  END
>  <i_m_ct_stereo_status>  (315) 
1

>  <s_m_source_file>  (315) 
/var/tmp/pbs.5083858.sched01/tmppqcd7fte/125e55c3yqz.sdf

>  <i_m_source_file_index>  (315) 
5

>  <i_lp_mmshare_version>  (315) 
48012

>  <i_f3d_flags>  (315) 
0

>  <s_epik_input>  (315) 
W09IXVtDQEBIXTFbQ0BIXShbT0hdKVtDQEhdKFtPSF0pW0NASF0oW0NIMl1bT0hdKU9bQ0BIXTFPW0NAXShPMikoW0NIMl1bQ0gyXTMpW0NAQF0oW0NIM10pKFtDQEBdMyhDMjQ1KUMoPU8pT1tDSDNdKWM2YzRjN1tDQEBIXThbQ0gyXUMoW0NIM10pKFtDSDNdKVtDQEBIXShPOClbQ0hdKGM2bjdbQ0gzXSlbQ0BASF05W0NIXTVbQ0gyXTk=

>  <s_epik_cmdline>  (315) 
J2VwaWtfcHl0aG9uJywgJy1waHQnLCAnMi4wJywgJy1waCcsICc3LjAnLCAnLXRuJywgJzgnLCAnLW1hJywgJzIwMCcsICctaW1hZScsICc8aW5maWxlLm1hZT4nLCAnLW9tYWUnLCAnPG91dGZpbGUubWFlPic=

>  <r_lp_tautomer_probability>  (315) 
1

>  <r_epik_Ionization_Penalty>  (315) 
4.93662e-06

>  <r_epik_Ionization_Penalty_Charging>  (315) 
0

>  <r_epik_Ionization_Penalty_Neutral>  (315) 
4.93662e-06

>  <r_epik_State_Penalty>  (315) 
-0

>  <r_epik_Charging_Adjusted_Penalty>  (315) 
0

>  <i_epik_Tot_Q>  (315) 
0

>  <i_epik_Tot_abs_Q>  (315) 
0

>  <s_epik_Chemistry_Notes>  (315) 
This compound has an ester and may undergo hydrolysis at high or low pH. This compound contains an acetal/aminal-like group ( X-CH(R)-Y where X, Y are N, S, or O) that may be acid/base labile, releasing an aldehyde.

>  <s_lp_Force_Field>  (315) 
OPLS3e

>  <r_lp_Energy>  (315) 
277.07

>  <b_lp_Chiralities_Consistent>  (315) 
1

>  <s_lp_Variant>  (315) 
90:0-1

>  <s_i_glide_gridfile>  (315) 
pfpi4k_grid

>  <i_i_glide_lignum>  (315) 
5

>  <i_i_glide_rotatable_bonds>  (315) 
9

>  <r_i_docking_score>  (315) 
-2.75686

>  <r_i_glide_ligand_efficiency>  (315) 
-0.0672404

>  <r_i_glide_ligand_efficiency_sa>  (315) 
-0.23186

>  <r_i_glide_ligand_efficiency_ln>  (315) 
-0.584876

>  <r_i_glide_gscore>  (315) 
-2.75686

>  <r_i_glide_lipo>  (315) 
-0.242815

>  <r_i_glide_hbond>  (315) 
-0.244379

>  <r_i_glide_metal>  (315) 
-0

>  <r_i_glide_rewards>  (315) 
0

>  <r_i_glide_evdw>  (315) 
-23.0351

>  <r_i_glide_ecoul>  (315) 
-11.8722

>  <r_i_glide_erotb>  (315) 
0.160243

>  <r_i_glide_esite>  (315) 
-0.0134187

>  <r_i_glide_emodel>  (315) 
-35.6141

>  <r_i_glide_energy>  (315) 
-34.9073

>  <r_i_glide_einternal>  (315) 
4.20524

>  <r_i_glide_intrahb_reward>  (315) 
-0

>  <i_i_glide_confnum>  (315) 
1

>  <i_i_glide_posenum>  (315) 
1

>  <r_i_glide_eff_state_penalty>  (315) 
0

>  <ligand_id>  (315) 
90

>  <original_smiles>  (315) 
COC(=O)C12CCC3(OC4OC(CO)C(O)C(O)C4O)OC14c1c(c5n(C)c1C1CC(C)(C)C(O1)C5C1CC14)C32C

>  <smiles>  (315) 
[H]OC([H])([H])C1([H])OC([H])(OC23OC45c6c(c7n(C([H])([H])[H])c6C6([H])OC([H])(C7([H])C7([H])C([H])([H])C47[H])C(C([H])([H])[H])(C([H])([H])[H])C6([H])[H])C2(C([H])([H])[H])C5(C(=O)OC([H])([H])[H])C([H])([H])C3([H])[H])C([H])(O[H])C([H])(O[H])C1([H])O[H]

$$$$
90:0:2
     RDKit          3D

 80 88  0  0  1  0  0  0  0  0999 V2000
    3.1101   -4.5330    8.7409 C   0  0  0  0  0  0  0  0  0  0  0  0
    3.1414   -4.2956    7.3459 O   0  0  0  0  0  0  0  0  0  0  0  0
    3.7689   -5.1843    6.5412 C   0  0  0  0  0  0  0  0  0  0  0  0
    4.3852   -6.1608    6.9597 O   0  0  0  0  0  0  0  0  0  0  0  0
    3.6580   -4.8229    5.0183 C   0  0  2  0  0  0  0  0  0  0  0  0
    4.0645   -3.2945    4.9364 C   0  0  0  0  0  0  0  0  0  0  0  0
    4.7279   -3.1486    3.5813 C   0  0  0  0  0  0  0  0  0  0  0  0
    4.3543   -4.5055    3.0364 C   0  0  2  0  0  0  0  0  0  0  0  0
    5.0099   -4.8891    1.8479 O   0  0  0  0  0  0  0  0  0  0  0  0
    5.0038   -3.9862    0.7494 C   0  0  2  0  0  0  0  0  0  0  0  0
    3.7359   -3.8312    0.1482 O   0  0  0  0  0  0  0  0  0  0  0  0
    3.6570   -2.8314   -0.8925 C   0  0  1  0  0  0  0  0  0  0  0  0
    3.9164   -1.4009   -0.3259 C   0  0  0  0  0  0  0  0  0  0  0  0
    2.9412   -1.0530    0.6444 O   0  0  0  0  0  0  0  0  0  0  0  0
    4.6034   -3.2371   -2.0450 C   0  0  1  0  0  0  0  0  0  0  0  0
    4.5222   -2.3524   -3.1744 O   0  0  0  0  0  0  0  0  0  0  0  0
    6.0511   -3.4329   -1.5387 C   0  0  1  0  0  0  0  0  0  0  0  0
    6.6875   -2.2043   -1.1939 O   0  0  0  0  0  0  0  0  0  0  0  0
    6.0544   -4.3906   -0.3190 C   0  0  1  0  0  0  0  0  0  0  0  0
    7.3399   -4.3914    0.2983 O   0  0  0  0  0  0  0  0  0  0  0  0
    2.9248   -4.3949    2.9426 O   0  0  0  0  0  0  0  0  0  0  0  0
    2.4942   -5.2847    3.9347 C   0  0  1  0  0  0  0  0  0  0  0  0
    2.8638   -6.5694    3.1061 C   0  0  0  0  0  0  0  0  0  0  0  0
    3.9289   -6.9028    3.8133 C   0  0  0  0  0  0  0  0  0  0  0  0
    3.2333   -7.9497    4.5164 C   0  0  0  0  0  0  0  0  0  0  0  0
    3.3810   -8.6363    3.3978 N   0  0  0  0  0  0  0  0  0  0  0  0
    3.7984  -10.0321    3.3613 C   0  0  0  0  0  0  0  0  0  0  0  0
    2.5988   -7.8220    2.5639 C   0  0  0  0  0  0  0  0  0  0  0  0
    1.5031   -8.5185    1.8629 C   0  0  2  0  0  0  0  0  0  0  0  0
    0.2242   -7.7038    1.8131 C   0  0  0  0  0  0  0  0  0  0  0  0
   -0.5694   -8.3781    2.9279 C   0  0  0  0  0  0  0  0  0  0  0  0
   -1.6996   -7.4535    3.4252 C   0  0  0  0  0  0  0  0  0  0  0  0
   -1.3639   -9.5691    2.3079 C   0  0  0  0  0  0  0  0  0  0  0  0
    0.5845   -8.9482    3.9149 C   0  0  1  0  0  0  0  0  0  0  0  0
    1.1916   -9.5652    2.7806 O   0  0  0  0  0  0  0  0  0  0  0  0
    1.6147   -8.0666    4.9008 C   0  0  2  0  0  0  0  0  0  0  0  0
    0.7739   -6.7920    5.1102 C   0  0  1  0  0  0  0  0  0  0  0  0
    0.9163   -5.6889    6.0873 C   0  0  0  0  0  0  0  0  0  0  0  0
    1.1336   -5.4042    4.5933 C   0  0  1  0  0  0  0  0  0  0  0  0
    4.6164   -5.5872    4.2005 C   0  0  2  0  0  0  0  0  0  0  0  0
    6.1297   -5.6527    4.5604 C   0  0  0  0  0  0  0  0  0  0  0  0
    2.4668   -3.7965    9.2233 H   0  0  0  0  0  0  0  0  0  0  0  0
    4.1111   -4.4618    9.1695 H   0  0  0  0  0  0  0  0  0  0  0  0
    2.7076   -5.5243    8.9588 H   0  0  0  0  0  0  0  0  0  0  0  0
    3.1947   -2.6322    5.0155 H   0  0  0  0  0  0  0  0  0  0  0  0
    4.7754   -2.9761    5.6971 H   0  0  0  0  0  0  0  0  0  0  0  0
    4.2477   -2.3691    2.9925 H   0  0  0  0  0  0  0  0  0  0  0  0
    5.8066   -3.0176    3.6068 H   0  0  0  0  0  0  0  0  0  0  0  0
    5.2804   -3.0136    1.1500 H   0  0  0  0  0  0  0  0  0  0  0  0
    2.6421   -2.8978   -1.2895 H   0  0  0  0  0  0  0  0  0  0  0  0
    4.8934   -1.2801    0.1418 H   0  0  0  0  0  0  0  0  0  0  0  0
    3.8476   -0.6522   -1.1221 H   0  0  0  0  0  0  0  0  0  0  0  0
    2.0627   -1.0500    0.2151 H   0  0  0  0  0  0  0  0  0  0  0  0
    4.2721   -4.2107   -2.4024 H   0  0  0  0  0  0  0  0  0  0  0  0
    3.5907   -2.1947   -3.3974 H   0  0  0  0  0  0  0  0  0  0  0  0
    6.6184   -3.8640   -2.3548 H   0  0  0  0  0  0  0  0  0  0  0  0
    7.4092   -2.4140   -0.5828 H   0  0  0  0  0  0  0  0  0  0  0  0
    5.8135   -5.4006   -0.6476 H   0  0  0  0  0  0  0  0  0  0  0  0
    7.9781   -4.7899   -0.3050 H   0  0  0  0  0  0  0  0  0  0  0  0
    3.5131  -10.4602    2.3929 H   0  0  0  0  0  0  0  0  0  0  0  0
    3.3818  -10.6647    4.1495 H   0  0  0  0  0  0  0  0  0  0  0  0
    4.8850  -10.0419    3.3921 H   0  0  0  0  0  0  0  0  0  0  0  0
    1.8515   -8.8740    0.9010 H   0  0  0  0  0  0  0  0  0  0  0  0
    0.4030   -6.6461    2.0101 H   0  0  0  0  0  0  0  0  0  0  0  0
   -0.2499   -7.7993    0.8428 H   0  0  0  0  0  0  0  0  0  0  0  0
   -2.1653   -7.8411    4.3297 H   0  0  0  0  0  0  0  0  0  0  0  0
   -2.4802   -7.3844    2.6713 H   0  0  0  0  0  0  0  0  0  0  0  0
   -1.3664   -6.4352    3.5949 H   0  0  0  0  0  0  0  0  0  0  0  0
   -1.9419  -10.0657    3.0746 H   0  0  0  0  0  0  0  0  0  0  0  0
   -0.7572  -10.3315    1.8186 H   0  0  0  0  0  0  0  0  0  0  0  0
   -2.0672   -9.2273    1.5570 H   0  0  0  0  0  0  0  0  0  0  0  0
    0.1560   -9.7467    4.5227 H   0  0  0  0  0  0  0  0  0  0  0  0
    1.5927   -8.5964    5.8608 H   0  0  0  0  0  0  0  0  0  0  0  0
   -0.2495   -7.0770    5.2987 H   0  0  0  0  0  0  0  0  0  0  0  0
    0.0035   -5.2452    6.4918 H   0  0  0  0  0  0  0  0  0  0  0  0
    1.5357   -6.1458    6.8544 H   0  0  0  0  0  0  0  0  0  0  0  0
    0.3529   -4.8335    4.1056 H   0  0  0  0  0  0  0  0  0  0  0  0
    6.5077   -4.6831    4.8889 H   0  0  0  0  0  0  0  0  0  0  0  0
    6.6792   -5.9141    3.6656 H   0  0  0  0  0  0  0  0  0  0  0  0
    6.3850   -6.3738    5.3432 H   0  0  0  0  0  0  0  0  0  0  0  0
  1  2  1  0
  1 42  1  0
  1 43  1  0
  1 44  1  0
  2  3  1  0
  3  4  2  0
  5  3  1  1
  5 22  1  0
  5 40  1  0
  5  6  1  0
  6  7  1  0
  6 45  1  0
  6 46  1  0
  7  8  1  0
  7 47  1  0
  7 48  1  0
  8 40  1  0
  8  9  1  6
  8 21  1  0
  9 10  1  0
 10 19  1  0
 10 11  1  0
 10 49  1  1
 11 12  1  0
 12 13  1  0
 12 15  1  0
 12 50  1  6
 13 14  1  0
 13 51  1  0
 13 52  1  0
 14 53  1  0
 15 16  1  0
 15 17  1  0
 15 54  1  6
 16 55  1  0
 17 18  1  0
 17 19  1  0
 17 56  1  6
 18 57  1  0
 19 20  1  0
 19 58  1  6
 20 59  1  0
 22 21  1  6
 22 39  1  0
 22 23  1  0
 23 28  2  0
 23 24  1  0
 24 25  2  0
 24 40  1  0
 25 36  1  0
 25 26  1  0
 26 27  1  0
 26 28  1  0
 27 60  1  0
 27 61  1  0
 27 62  1  0
 28 29  1  0
 29 35  1  0
 29 30  1  0
 29 63  1  6
 30 31  1  0
 30 64  1  0
 30 65  1  0
 31 32  1  0
 31 33  1  0
 31 34  1  0
 32 66  1  0
 32 67  1  0
 32 68  1  0
 33 69  1  0
 33 70  1  0
 33 71  1  0
 34 35  1  0
 34 36  1  0
 34 72  1  1
 36 37  1  0
 36 73  1  1
 37 39  1  0
 37 38  1  0
 37 74  1  6
 38 39  1  0
 38 75  1  0
 38 76  1  0
 39 77  1  6
 40 41  1  1
 41 78  1  0
 41 79  1  0
 41 80  1  0
M  END
>  <i_m_ct_stereo_status>  (316) 
1

>  <s_m_source_file>  (316) 
/var/tmp/pbs.5083858.sched01/tmppqcd7fte/125e55c3yqz.sdf

>  <i_m_source_file_index>  (316) 
5

>  <i_lp_mmshare_version>  (316) 
48012

>  <i_f3d_flags>  (316) 
0

>  <s_epik_input>  (316) 
W09IXVtDQEBIXTFbQ0BIXShbT0hdKVtDQEhdKFtPSF0pW0NASF0oW0NIMl1bT0hdKU9bQ0BIXTFPW0NAXShPMikoW0NIMl1bQ0gyXTMpW0NAQF0oW0NIM10pKFtDQEBdMyhDMjQ1KUMoPU8pT1tDSDNdKWM2YzRjN1tDQEBIXThbQ0gyXUMoW0NIM10pKFtDSDNdKVtDQEBIXShPOClbQ0hdKGM2bjdbQ0gzXSlbQ0BASF05W0NIXTVbQ0gyXTk=

>  <s_epik_cmdline>  (316) 
J2VwaWtfcHl0aG9uJywgJy1waHQnLCAnMi4wJywgJy1waCcsICc3LjAnLCAnLXRuJywgJzgnLCAnLW1hJywgJzIwMCcsICctaW1hZScsICc8aW5maWxlLm1hZT4nLCAnLW9tYWUnLCAnPG91dGZpbGUubWFlPic=

>  <r_lp_tautomer_probability>  (316) 
1

>  <r_epik_Ionization_Penalty>  (316) 
4.93662e-06

>  <r_epik_Ionization_Penalty_Charging>  (316) 
0

>  <r_epik_Ionization_Penalty_Neutral>  (316) 
4.93662e-06

>  <r_epik_State_Penalty>  (316) 
-0

>  <r_epik_Charging_Adjusted_Penalty>  (316) 
0

>  <i_epik_Tot_Q>  (316) 
0

>  <i_epik_Tot_abs_Q>  (316) 
0

>  <s_epik_Chemistry_Notes>  (316) 
This compound has an ester and may undergo hydrolysis at high or low pH. This compound contains an acetal/aminal-like group ( X-CH(R)-Y where X, Y are N, S, or O) that may be acid/base labile, releasing an aldehyde.

>  <s_lp_Force_Field>  (316) 
OPLS3e

>  <r_lp_Energy>  (316) 
277.07

>  <b_lp_Chiralities_Consistent>  (316) 
1

>  <s_lp_Variant>  (316) 
90:0-1

>  <s_i_glide_gridfile>  (316) 
pfpi4k_grid

>  <i_i_glide_lignum>  (316) 
5

>  <i_i_glide_rotatable_bonds>  (316) 
9

>  <r_i_docking_score>  (316) 
-2.71646

>  <r_i_glide_ligand_efficiency>  (316) 
-0.0662552

>  <r_i_glide_ligand_efficiency_sa>  (316) 
-0.228462

>  <r_i_glide_ligand_efficiency_ln>  (316) 
-0.576307

>  <r_i_glide_gscore>  (316) 
-2.71646

>  <r_i_glide_lipo>  (316) 
-0.457729

>  <r_i_glide_hbond>  (316) 
0

>  <r_i_glide_metal>  (316) 
-0

>  <r_i_glide_rewards>  (316) 
-0.0580693

>  <r_i_glide_evdw>  (316) 
-27.4785

>  <r_i_glide_ecoul>  (316) 
-6.98391

>  <r_i_glide_erotb>  (316) 
0.160243

>  <r_i_glide_esite>  (316) 
-0.00255084

>  <r_i_glide_emodel>  (316) 
-36.7401

>  <r_i_glide_energy>  (316) 
-34.4624

>  <r_i_glide_einternal>  (316) 
2.01195

>  <r_i_glide_intrahb_reward>  (316) 
-0

>  <i_i_glide_confnum>  (316) 
6

>  <i_i_glide_posenum>  (316) 
19

>  <r_i_glide_eff_state_penalty>  (316) 
0

>  <ligand_id>  (316) 
90

>  <original_smiles>  (316) 
COC(=O)C12CCC3(OC4OC(CO)C(O)C(O)C4O)OC14c1c(c5n(C)c1C1CC(C)(C)C(O1)C5C1CC14)C32C

>  <smiles>  (316) 
[H]OC([H])([H])C1([H])OC([H])(OC23OC45c6c(c7n(C([H])([H])[H])c6C6([H])OC([H])(C7([H])C7([H])C([H])([H])C47[H])C(C([H])([H])[H])(C([H])([H])[H])C6([H])[H])C2(C([H])([H])[H])C5(C(=O)OC([H])([H])[H])C([H])([H])C3([H])[H])C([H])(O[H])C([H])(O[H])C1([H])O[H]

$$$$
90:1:0
     RDKit          3D

 80 88  0  0  1  0  0  0  0  0999 V2000
    7.0250   -8.0532    7.4811 C   0  0  0  0  0  0  0  0  0  0  0  0
    6.6137   -7.2325    6.4059 O   0  0  0  0  0  0  0  0  0  0  0  0
    6.5354   -7.7505    5.1764 C   0  0  0  0  0  0  0  0  0  0  0  0
    6.7902   -8.9167    4.8631 O   0  0  0  0  0  0  0  0  0  0  0  0
    6.0436   -6.7110    4.1527 C   0  0  2  0  0  0  0  0  0  0  0  0
    7.0923   -5.6038    3.9694 C   0  0  0  0  0  0  0  0  0  0  0  0
    6.8542   -5.1321    2.5404 C   0  0  0  0  0  0  0  0  0  0  0  0
    5.5509   -5.8412    2.2105 C   0  0  2  0  0  0  0  0  0  0  0  0
    5.1871   -5.7381    0.8668 O   0  0  0  0  0  0  0  0  0  0  0  0
    4.7681   -4.4459    0.4488 C   0  0  2  0  0  0  0  0  0  0  0  0
    3.3859   -4.4229    0.1866 O   0  0  0  0  0  0  0  0  0  0  0  0
    2.8462   -3.1595   -0.2066 C   0  0  1  0  0  0  0  0  0  0  0  0
    2.8869   -2.1292    0.9663 C   0  0  0  0  0  0  0  0  0  0  0  0
    2.0417   -2.5105    2.0442 O   0  0  0  0  0  0  0  0  0  0  0  0
    3.5404   -2.7099   -1.5021 C   0  0  1  0  0  0  0  0  0  0  0  0
    3.0141   -1.4796   -1.9699 O   0  0  0  0  0  0  0  0  0  0  0  0
    5.0690   -2.6382   -1.3665 C   0  0  1  0  0  0  0  0  0  0  0  0
    5.4555   -1.5250   -0.5468 O   0  0  0  0  0  0  0  0  0  0  0  0
    5.5832   -3.9717   -0.7820 C   0  0  1  0  0  0  0  0  0  0  0  0
    6.9659   -3.8512   -0.4322 O   0  0  0  0  0  0  0  0  0  0  0  0
    4.6344   -5.4309    3.1433 O   0  0  0  0  0  0  0  0  0  0  0  0
    4.5754   -6.3250    4.3616 C   0  0  1  0  0  0  0  0  0  0  0  0
    3.8556   -7.7019    4.1843 C   0  0  0  0  0  0  0  0  0  0  0  0
    4.2206   -7.8621    2.8971 C   0  0  0  0  0  0  0  0  0  0  0  0
    2.9358   -7.3948    2.4034 C   0  0  0  0  0  0  0  0  0  0  0  0
    2.4403   -8.5431    2.8244 N   0  0  0  0  0  0  0  0  0  0  0  0
    2.5752   -9.7517    1.9716 C   0  0  0  0  0  0  0  0  0  0  0  0
    2.6678   -8.4333    4.1916 C   0  0  0  0  0  0  0  0  0  0  0  0
    1.3958   -8.5531    4.9997 C   0  0  2  0  0  0  0  0  0  0  0  0
    0.1827   -9.1100    4.2227 C   0  0  0  0  0  0  0  0  0  0  0  0
   -0.3793   -7.8947    3.4332 C   0  0  0  0  0  0  0  0  0  0  0  0
   -0.5192   -8.0618    1.9170 C   0  0  0  0  0  0  0  0  0  0  0  0
   -1.8039   -7.6419    3.9680 C   0  0  0  0  0  0  0  0  0  0  0  0
    0.5700   -6.7337    3.8493 C   0  0  1  0  0  0  0  0  0  0  0  0
    0.8784   -7.2455    5.1447 O   0  0  0  0  0  0  0  0  0  0  0  0
    1.9182   -6.2331    3.1015 C   0  0  1  0  0  0  0  0  0  0  0  0
    2.4602   -5.1410    4.1467 C   0  0  1  0  0  0  0  0  0  0  0  0
    2.5447   -5.2601    5.6761 C   0  0  0  0  0  0  0  0  0  0  0  0
    3.8214   -5.1722    4.9322 C   0  0  1  0  0  0  0  0  0  0  0  0
    5.6186   -7.2188    2.7030 C   0  0  2  0  0  0  0  0  0  0  0  0
    6.6043   -8.0821    1.9128 C   0  0  0  0  0  0  0  0  0  0  0  0
    7.0319   -7.4771    8.4027 H   0  0  0  0  0  0  0  0  0  0  0  0
    8.0295   -8.4412    7.3204 H   0  0  0  0  0  0  0  0  0  0  0  0
    6.3453   -8.8927    7.6150 H   0  0  0  0  0  0  0  0  0  0  0  0
    6.9471   -4.8448    4.7333 H   0  0  0  0  0  0  0  0  0  0  0  0
    8.1051   -5.9835    4.0730 H   0  0  0  0  0  0  0  0  0  0  0  0
    6.7327   -4.0583    2.4372 H   0  0  0  0  0  0  0  0  0  0  0  0
    7.6450   -5.4575    1.8716 H   0  0  0  0  0  0  0  0  0  0  0  0
    4.9148   -3.7636    1.2899 H   0  0  0  0  0  0  0  0  0  0  0  0
    1.8115   -3.3631   -0.4883 H   0  0  0  0  0  0  0  0  0  0  0  0
    3.8994   -1.9618    1.3518 H   0  0  0  0  0  0  0  0  0  0  0  0
    2.5529   -1.1546    0.6187 H   0  0  0  0  0  0  0  0  0  0  0  0
    1.1194   -2.3232    1.8096 H   0  0  0  0  0  0  0  0  0  0  0  0
    3.3394   -3.4660   -2.2632 H   0  0  0  0  0  0  0  0  0  0  0  0
    2.0693   -1.4245   -1.6886 H   0  0  0  0  0  0  0  0  0  0  0  0
    5.5149   -2.5066   -2.3562 H   0  0  0  0  0  0  0  0  0  0  0  0
    4.8816   -0.7679   -0.7593 H   0  0  0  0  0  0  0  0  0  0  0  0
    5.4604   -4.7360   -1.5479 H   0  0  0  0  0  0  0  0  0  0  0  0
    7.4944   -3.6795   -1.2252 H   0  0  0  0  0  0  0  0  0  0  0  0
    3.1010  -10.4951    2.5686 H   0  0  0  0  0  0  0  0  0  0  0  0
    3.1713   -9.5495    1.0691 H   0  0  0  0  0  0  0  0  0  0  0  0
    1.5962  -10.1520    1.6811 H   0  0  0  0  0  0  0  0  0  0  0  0
    1.5979   -9.0579    5.9337 H   0  0  0  0  0  0  0  0  0  0  0  0
    0.4010   -9.9823    3.6156 H   0  0  0  0  0  0  0  0  0  0  0  0
   -0.5431   -9.4514    4.9655 H   0  0  0  0  0  0  0  0  0  0  0  0
   -1.0108   -7.1919    1.4911 H   0  0  0  0  0  0  0  0  0  0  0  0
   -1.1064   -8.9534    1.6941 H   0  0  0  0  0  0  0  0  0  0  0  0
    0.4270   -8.1368    1.3949 H   0  0  0  0  0  0  0  0  0  0  0  0
   -2.2388   -6.7541    3.5251 H   0  0  0  0  0  0  0  0  0  0  0  0
   -1.7976   -7.4889    5.0435 H   0  0  0  0  0  0  0  0  0  0  0  0
   -2.4701   -8.4840    3.7613 H   0  0  0  0  0  0  0  0  0  0  0  0
   -0.0204   -5.8456    4.0469 H   0  0  0  0  0  0  0  0  0  0  0  0
    1.5565   -5.6764    2.2154 H   0  0  0  0  0  0  0  0  0  0  0  0
    2.0668   -4.1703    3.8927 H   0  0  0  0  0  0  0  0  0  0  0  0
    2.2582   -4.3673    6.2182 H   0  0  0  0  0  0  0  0  0  0  0  0
    2.5258   -6.1747    6.2537 H   0  0  0  0  0  0  0  0  0  0  0  0
    4.3583   -4.2250    5.0362 H   0  0  0  0  0  0  0  0  0  0  0  0
    7.6316   -7.7075    1.9891 H   0  0  0  0  0  0  0  0  0  0  0  0
    6.3224   -8.1117    0.8607 H   0  0  0  0  0  0  0  0  0  0  0  0
    6.5784   -9.1094    2.2889 H   0  0  0  0  0  0  0  0  0  0  0  0
  1  2  1  0
  1 42  1  0
  1 43  1  0
  1 44  1  0
  2  3  1  0
  3  4  2  0
  5  3  1  1
  5 22  1  0
  5 40  1  0
  5  6  1  0
  6  7  1  0
  6 45  1  0
  6 46  1  0
  7  8  1  0
  7 47  1  0
  7 48  1  0
  8 40  1  0
  8  9  1  6
  8 21  1  0
  9 10  1  0
 10 19  1  0
 10 11  1  0
 10 49  1  1
 11 12  1  0
 12 13  1  0
 12 15  1  0
 12 50  1  6
 13 14  1  0
 13 51  1  0
 13 52  1  0
 14 53  1  0
 15 16  1  0
 15 17  1  0
 15 54  1  6
 16 55  1  0
 17 18  1  0
 17 19  1  0
 17 56  1  6
 18 57  1  0
 19 20  1  0
 19 58  1  6
 20 59  1  0
 22 21  1  6
 22 39  1  0
 22 23  1  0
 23 28  2  0
 23 24  1  0
 24 25  2  0
 24 40  1  0
 25 36  1  0
 25 26  1  0
 26 27  1  0
 26 28  1  0
 27 60  1  0
 27 61  1  0
 27 62  1  0
 28 29  1  0
 29 35  1  0
 29 30  1  0
 29 63  1  1
 30 31  1  0
 30 64  1  0
 30 65  1  0
 31 32  1  0
 31 33  1  0
 31 34  1  0
 32 66  1  0
 32 67  1  0
 32 68  1  0
 33 69  1  0
 33 70  1  0
 33 71  1  0
 34 35  1  0
 34 36  1  0
 34 72  1  1
 36 37  1  0
 36 73  1  6
 37 39  1  0
 37 38  1  0
 37 74  1  1
 38 39  1  0
 38 75  1  0
 38 76  1  0
 39 77  1  1
 40 41  1  6
 41 78  1  0
 41 79  1  0
 41 80  1  0
M  END
>  <i_m_ct_stereo_status>  (317) 
1

>  <s_m_source_file>  (317) 
/var/tmp/pbs.5083858.sched01/tmpj24v1vso/130xnf0ob2q.sdf

>  <i_m_source_file_index>  (317) 
1

>  <i_lp_mmshare_version>  (317) 
48012

>  <i_f3d_flags>  (317) 
0

>  <s_epik_input>  (317) 
W09IXVtDQEBIXTFbQ0BIXShbT0hdKVtDQEhdKFtPSF0pW0NASF0oW0NIMl1bT0hdKU9bQ0BIXTFPW0NAXShPMikoW0NIMl1bQ0gyXTMpW0NAQF0oW0NIM10pKFtDQEBdMyhDMjQ1KUMoPU8pT1tDSDNdKWM2YzRjN1tDQEBIXThbQ0gyXUMoW0NIM10pKFtDSDNdKVtDQEBIXShPOClbQ0hdKGM2bjdbQ0gzXSlbQ0BASF05W0NIXTVbQ0gyXTk=

>  <s_epik_cmdline>  (317) 
J2VwaWtfcHl0aG9uJywgJy1waHQnLCAnMi4wJywgJy1waCcsICc3LjAnLCAnLXRuJywgJzgnLCAnLW1hJywgJzIwMCcsICctaW1hZScsICc8aW5maWxlLm1hZT4nLCAnLW9tYWUnLCAnPG91dGZpbGUubWFlPic=

>  <r_lp_tautomer_probability>  (317) 
1

>  <r_epik_Ionization_Penalty>  (317) 
4.93662e-06

>  <r_epik_Ionization_Penalty_Charging>  (317) 
0

>  <r_epik_Ionization_Penalty_Neutral>  (317) 
4.93662e-06

>  <r_epik_State_Penalty>  (317) 
-0

>  <r_epik_Charging_Adjusted_Penalty>  (317) 
0

>  <i_epik_Tot_Q>  (317) 
0

>  <i_epik_Tot_abs_Q>  (317) 
0

>  <s_epik_Chemistry_Notes>  (317) 
This compound has an ester and may undergo hydrolysis at high or low pH. This compound contains an acetal/aminal-like group ( X-CH(R)-Y where X, Y are N, S, or O) that may be acid/base labile, releasing an aldehyde.

>  <s_lp_Force_Field>  (317) 
OPLS3e

>  <r_lp_Energy>  (317) 
280.485

>  <b_lp_Chiralities_Consistent>  (317) 
1

>  <s_lp_Variant>  (317) 
90:0-2

>  <s_i_glide_gridfile>  (317) 
pfpi4k_grid

>  <i_i_glide_lignum>  (317) 
1

>  <i_i_glide_rotatable_bonds>  (317) 
9

>  <r_i_docking_score>  (317) 
-2.75815

>  <r_i_glide_ligand_efficiency>  (317) 
-0.067272

>  <r_i_glide_ligand_efficiency_sa>  (317) 
-0.231968

>  <r_i_glide_ligand_efficiency_ln>  (317) 
-0.585151

>  <r_i_glide_gscore>  (317) 
-2.75815

>  <r_i_glide_lipo>  (317) 
-0.170871

>  <r_i_glide_hbond>  (317) 
0

>  <r_i_glide_metal>  (317) 
-0

>  <r_i_glide_rewards>  (317) 
-0.0921996

>  <r_i_glide_evdw>  (317) 
-23.7434

>  <r_i_glide_ecoul>  (317) 
-9.74136

>  <r_i_glide_erotb>  (317) 
0.160243

>  <r_i_glide_esite>  (317) 
-0.00695183

>  <r_i_glide_emodel>  (317) 
-34.9628

>  <r_i_glide_energy>  (317) 
-33.4847

>  <r_i_glide_einternal>  (317) 
4.60492

>  <r_i_glide_intrahb_reward>  (317) 
-0

>  <i_i_glide_confnum>  (317) 
3

>  <i_i_glide_posenum>  (317) 
28

>  <r_i_glide_eff_state_penalty>  (317) 
0

>  <ligand_id>  (317) 
90

>  <original_smiles>  (317) 
COC(=O)C12CCC3(OC4OC(CO)C(O)C(O)C4O)OC14c1c(c5n(C)c1C1CC(C)(C)C(O1)C5C1CC14)C32C

>  <smiles>  (317) 
[H]OC([H])([H])C1([H])OC([H])(OC23OC45c6c(c7n(C([H])([H])[H])c6C6([H])OC([H])(C7([H])C7([H])C([H])([H])C47[H])C(C([H])([H])[H])(C([H])([H])[H])C6([H])[H])C2(C([H])([H])[H])C5(C(=O)OC([H])([H])[H])C([H])([H])C3([H])[H])C([H])(O[H])C([H])(O[H])C1([H])O[H]

$$$$
90:1:1
     RDKit          3D

 80 88  0  0  1  0  0  0  0  0999 V2000
    6.1601  -12.2158    5.4670 C   0  0  0  0  0  0  0  0  0  0  0  0
    5.9156  -10.9802    4.8298 O   0  0  0  0  0  0  0  0  0  0  0  0
    4.7819  -10.8161    4.1348 C   0  0  0  0  0  0  0  0  0  0  0  0
    3.8878  -11.6488    4.0050 O   0  0  0  0  0  0  0  0  0  0  0  0
    4.6785   -9.3927    3.5562 C   0  0  2  0  0  0  0  0  0  0  0  0
    5.7659   -9.1557    2.4851 C   0  0  0  0  0  0  0  0  0  0  0  0
    5.1377   -8.1292    1.5658 C   0  0  0  0  0  0  0  0  0  0  0  0
    3.9081   -7.7115    2.4037 C   0  0  2  0  0  0  0  0  0  0  0  0
    2.9841   -6.8377    1.8012 O   0  0  0  0  0  0  0  0  0  0  0  0
    3.5560   -5.7250    1.1366 C   0  0  2  0  0  0  0  0  0  0  0  0
    4.4542   -5.0345    1.9817 O   0  0  0  0  0  0  0  0  0  0  0  0
    5.0922   -3.8779    1.4344 C   0  0  1  0  0  0  0  0  0  0  0  0
    6.1296   -4.2645    0.3244 C   0  0  0  0  0  0  0  0  0  0  0  0
    7.2341   -5.0014    0.8590 O   0  0  0  0  0  0  0  0  0  0  0  0
    3.9888   -2.8630    1.0672 C   0  0  1  0  0  0  0  0  0  0  0  0
    4.5328   -1.6537    0.5684 O   0  0  0  0  0  0  0  0  0  0  0  0
    2.9583   -3.4486    0.0848 C   0  0  1  0  0  0  0  0  0  0  0  0
    3.5604   -3.6163   -1.2084 O   0  0  0  0  0  0  0  0  0  0  0  0
    2.4281   -4.7818    0.6673 C   0  0  1  0  0  0  0  0  0  0  0  0
    1.5763   -5.4495   -0.2698 O   0  0  0  0  0  0  0  0  0  0  0  0
    4.3893   -7.2917    3.6053 O   0  0  0  0  0  0  0  0  0  0  0  0
    4.4611   -8.3706    4.6660 C   0  0  1  0  0  0  0  0  0  0  0  0
    3.1043   -8.8424    5.2900 C   0  0  0  0  0  0  0  0  0  0  0  0
    2.3809   -8.6413    4.1675 C   0  0  0  0  0  0  0  0  0  0  0  0
    1.8699   -7.3675    4.5979 C   0  0  0  0  0  0  0  0  0  0  0  0
    1.1166   -8.0283    5.4567 N   0  0  0  0  0  0  0  0  0  0  0  0
   -0.1430   -8.6132    4.9753 C   0  0  0  0  0  0  0  0  0  0  0  0
    2.1029   -8.6173    6.2550 C   0  0  0  0  0  0  0  0  0  0  0  0
    1.9601   -8.2464    7.6981 C   0  0  2  0  0  0  0  0  0  0  0  0
    0.6035   -7.6183    8.0865 C   0  0  0  0  0  0  0  0  0  0  0  0
    0.7145   -6.1170    7.6816 C   0  0  0  0  0  0  0  0  0  0  0  0
   -0.3673   -5.5542    6.7455 C   0  0  0  0  0  0  0  0  0  0  0  0
    0.6167   -5.2956    8.9925 C   0  0  0  0  0  0  0  0  0  0  0  0
    2.1562   -6.0330    7.0869 C   0  0  1  0  0  0  0  0  0  0  0  0
    2.7143   -7.0743    7.8967 O   0  0  0  0  0  0  0  0  0  0  0  0
    2.6069   -6.2151    5.5295 C   0  0  1  0  0  0  0  0  0  0  0  0
    4.2176   -6.1549    5.6984 C   0  0  1  0  0  0  0  0  0  0  0  0
    5.0870   -6.8633    6.7333 C   0  0  0  0  0  0  0  0  0  0  0  0
    5.2439   -7.2889    5.3383 C   0  0  1  0  0  0  0  0  0  0  0  0
    3.2823   -8.9222    2.9482 C   0  0  2  0  0  0  0  0  0  0  0  0
    2.6141   -9.7826    1.8630 C   0  0  0  0  0  0  0  0  0  0  0  0
    7.1198  -12.1797    5.9716 H   0  0  0  0  0  0  0  0  0  0  0  0
    6.1892  -13.0249    4.7444 H   0  0  0  0  0  0  0  0  0  0  0  0
    5.3960  -12.4330    6.2064 H   0  0  0  0  0  0  0  0  0  0  0  0
    6.6954   -8.8023    2.9318 H   0  0  0  0  0  0  0  0  0  0  0  0
    5.9887  -10.0742    1.9468 H   0  0  0  0  0  0  0  0  0  0  0  0
    5.8320   -7.3201    1.3706 H   0  0  0  0  0  0  0  0  0  0  0  0
    4.8532   -8.5776    0.6251 H   0  0  0  0  0  0  0  0  0  0  0  0
    4.1366   -6.1252    0.3032 H   0  0  0  0  0  0  0  0  0  0  0  0
    5.6305   -3.4349    2.2758 H   0  0  0  0  0  0  0  0  0  0  0  0
    5.6964   -4.8377   -0.5048 H   0  0  0  0  0  0  0  0  0  0  0  0
    6.5507   -3.3721   -0.1359 H   0  0  0  0  0  0  0  0  0  0  0  0
    7.7499   -4.4533    1.4695 H   0  0  0  0  0  0  0  0  0  0  0  0
    3.4521   -2.6132    1.9827 H   0  0  0  0  0  0  0  0  0  0  0  0
    4.9143   -1.8494   -0.2964 H   0  0  0  0  0  0  0  0  0  0  0  0
    2.1223   -2.7426    0.0133 H   0  0  0  0  0  0  0  0  0  0  0  0
    2.9513   -4.0715   -1.8127 H   0  0  0  0  0  0  0  0  0  0  0  0
    1.8339   -4.5518    1.5485 H   0  0  0  0  0  0  0  0  0  0  0  0
    2.1342   -5.7364   -1.0144 H   0  0  0  0  0  0  0  0  0  0  0  0
   -0.0625   -9.6876    5.1928 H   0  0  0  0  0  0  0  0  0  0  0  0
   -0.2763   -8.4769    3.8928 H   0  0  0  0  0  0  0  0  0  0  0  0
   -1.0047   -8.2030    5.5100 H   0  0  0  0  0  0  0  0  0  0  0  0
    2.2594   -9.0736    8.3193 H   0  0  0  0  0  0  0  0  0  0  0  0
   -0.2442   -8.1500    7.6656 H   0  0  0  0  0  0  0  0  0  0  0  0
    0.4951   -7.7065    9.1701 H   0  0  0  0  0  0  0  0  0  0  0  0
   -0.2445   -4.4751    6.6462 H   0  0  0  0  0  0  0  0  0  0  0  0
   -1.3611   -5.7453    7.1484 H   0  0  0  0  0  0  0  0  0  0  0  0
   -0.3213   -5.9588    5.7395 H   0  0  0  0  0  0  0  0  0  0  0  0
    0.7535   -4.2321    8.8170 H   0  0  0  0  0  0  0  0  0  0  0  0
    1.3565   -5.5970    9.7361 H   0  0  0  0  0  0  0  0  0  0  0  0
   -0.3628   -5.4155    9.4572 H   0  0  0  0  0  0  0  0  0  0  0  0
    2.6413   -5.1277    7.4429 H   0  0  0  0  0  0  0  0  0  0  0  0
    2.3143   -5.2696    5.0398 H   0  0  0  0  0  0  0  0  0  0  0  0
    4.5585   -5.1359    5.5282 H   0  0  0  0  0  0  0  0  0  0  0  0
    5.8978   -6.2601    7.1284 H   0  0  0  0  0  0  0  0  0  0  0  0
    4.8100   -7.7171    7.3408 H   0  0  0  0  0  0  0  0  0  0  0  0
    6.1827   -6.9937    4.8549 H   0  0  0  0  0  0  0  0  0  0  0  0
    3.3644  -10.1657    1.1670 H   0  0  0  0  0  0  0  0  0  0  0  0
    1.8442   -9.2367    1.2887 H   0  0  0  0  0  0  0  0  0  0  0  0
    2.1426  -10.6381    2.3492 H   0  0  0  0  0  0  0  0  0  0  0  0
  1  2  1  0
  1 42  1  0
  1 43  1  0
  1 44  1  0
  2  3  1  0
  3  4  2  0
  5  3  1  1
  5 22  1  0
  5 40  1  0
  5  6  1  0
  6  7  1  0
  6 45  1  0
  6 46  1  0
  7  8  1  0
  7 47  1  0
  7 48  1  0
  8 40  1  0
  8  9  1  6
  8 21  1  0
  9 10  1  0
 10 19  1  0
 10 11  1  0
 10 49  1  6
 11 12  1  0
 12 13  1  0
 12 15  1  0
 12 50  1  1
 13 14  1  0
 13 51  1  0
 13 52  1  0
 14 53  1  0
 15 16  1  0
 15 17  1  0
 15 54  1  1
 16 55  1  0
 17 18  1  0
 17 19  1  0
 17 56  1  6
 18 57  1  0
 19 20  1  0
 19 58  1  1
 20 59  1  0
 22 21  1  6
 22 39  1  0
 22 23  1  0
 23 28  2  0
 23 24  1  0
 24 25  2  0
 24 40  1  0
 25 36  1  0
 25 26  1  0
 26 27  1  0
 26 28  1  0
 27 60  1  0
 27 61  1  0
 27 62  1  0
 28 29  1  0
 29 35  1  0
 29 30  1  0
 29 63  1  1
 30 31  1  0
 30 64  1  0
 30 65  1  0
 31 32  1  0
 31 33  1  0
 31 34  1  0
 32 66  1  0
 32 67  1  0
 32 68  1  0
 33 69  1  0
 33 70  1  0
 33 71  1  0
 34 35  1  0
 34 36  1  0
 34 72  1  1
 36 37  1  0
 36 73  1  6
 37 39  1  0
 37 38  1  0
 37 74  1  6
 38 39  1  0
 38 75  1  0
 38 76  1  0
 39 77  1  6
 40 41  1  6
 41 78  1  0
 41 79  1  0
 41 80  1  0
M  END
>  <i_m_ct_stereo_status>  (318) 
1

>  <s_m_source_file>  (318) 
/var/tmp/pbs.5083858.sched01/tmpj24v1vso/130xnf0ob2q.sdf

>  <i_m_source_file_index>  (318) 
1

>  <i_lp_mmshare_version>  (318) 
48012

>  <i_f3d_flags>  (318) 
0

>  <s_epik_input>  (318) 
W09IXVtDQEBIXTFbQ0BIXShbT0hdKVtDQEhdKFtPSF0pW0NASF0oW0NIMl1bT0hdKU9bQ0BIXTFPW0NAXShPMikoW0NIMl1bQ0gyXTMpW0NAQF0oW0NIM10pKFtDQEBdMyhDMjQ1KUMoPU8pT1tDSDNdKWM2YzRjN1tDQEBIXThbQ0gyXUMoW0NIM10pKFtDSDNdKVtDQEBIXShPOClbQ0hdKGM2bjdbQ0gzXSlbQ0BASF05W0NIXTVbQ0gyXTk=

>  <s_epik_cmdline>  (318) 
J2VwaWtfcHl0aG9uJywgJy1waHQnLCAnMi4wJywgJy1waCcsICc3LjAnLCAnLXRuJywgJzgnLCAnLW1hJywgJzIwMCcsICctaW1hZScsICc8aW5maWxlLm1hZT4nLCAnLW9tYWUnLCAnPG91dGZpbGUubWFlPic=

>  <r_lp_tautomer_probability>  (318) 
1

>  <r_epik_Ionization_Penalty>  (318) 
4.93662e-06

>  <r_epik_Ionization_Penalty_Charging>  (318) 
0

>  <r_epik_Ionization_Penalty_Neutral>  (318) 
4.93662e-06

>  <r_epik_State_Penalty>  (318) 
-0

>  <r_epik_Charging_Adjusted_Penalty>  (318) 
0

>  <i_epik_Tot_Q>  (318) 
0

>  <i_epik_Tot_abs_Q>  (318) 
0

>  <s_epik_Chemistry_Notes>  (318) 
This compound has an ester and may undergo hydrolysis at high or low pH. This compound contains an acetal/aminal-like group ( X-CH(R)-Y where X, Y are N, S, or O) that may be acid/base labile, releasing an aldehyde.

>  <s_lp_Force_Field>  (318) 
OPLS3e

>  <r_lp_Energy>  (318) 
280.485

>  <b_lp_Chiralities_Consistent>  (318) 
1

>  <s_lp_Variant>  (318) 
90:0-2

>  <s_i_glide_gridfile>  (318) 
pfpi4k_grid

>  <i_i_glide_lignum>  (318) 
1

>  <i_i_glide_rotatable_bonds>  (318) 
9

>  <r_i_docking_score>  (318) 
-2.44942

>  <r_i_glide_ligand_efficiency>  (318) 
-0.059742

>  <r_i_glide_ligand_efficiency_sa>  (318) 
-0.206003

>  <r_i_glide_ligand_efficiency_ln>  (318) 
-0.519653

>  <r_i_glide_gscore>  (318) 
-2.44942

>  <r_i_glide_lipo>  (318) 
-0.231045

>  <r_i_glide_hbond>  (318) 
0

>  <r_i_glide_metal>  (318) 
-0

>  <r_i_glide_rewards>  (318) 
-0.0283427

>  <r_i_glide_evdw>  (318) 
-23.5777

>  <r_i_glide_ecoul>  (318) 
-7.62958

>  <r_i_glide_erotb>  (318) 
0.160243

>  <r_i_glide_esite>  (318) 
-0.0269561

>  <r_i_glide_emodel>  (318) 
-33.5413

>  <r_i_glide_energy>  (318) 
-31.2073

>  <r_i_glide_einternal>  (318) 
3.76792

>  <r_i_glide_intrahb_reward>  (318) 
-0

>  <i_i_glide_confnum>  (318) 
4

>  <i_i_glide_posenum>  (318) 
7

>  <r_i_glide_eff_state_penalty>  (318) 
0

>  <ligand_id>  (318) 
90

>  <original_smiles>  (318) 
COC(=O)C12CCC3(OC4OC(CO)C(O)C(O)C4O)OC14c1c(c5n(C)c1C1CC(C)(C)C(O1)C5C1CC14)C32C

>  <smiles>  (318) 
[H]OC([H])([H])C1([H])OC([H])(OC23OC45c6c(c7n(C([H])([H])[H])c6C6([H])OC([H])(C7([H])C7([H])C([H])([H])C47[H])C(C([H])([H])[H])(C([H])([H])[H])C6([H])[H])C2(C([H])([H])[H])C5(C(=O)OC([H])([H])[H])C([H])([H])C3([H])[H])C([H])(O[H])C([H])(O[H])C1([H])O[H]

$$$$
90:1:2
     RDKit          3D

 80 88  0  0  1  0  0  0  0  0999 V2000
    4.9778   -2.6054    9.0230 C   0  0  0  0  0  0  0  0  0  0  0  0
    4.9114   -2.4899    7.6158 O   0  0  0  0  0  0  0  0  0  0  0  0
    3.8701   -3.0615    6.9717 C   0  0  0  0  0  0  0  0  0  0  0  0
    2.9422   -3.6378    7.4758 O   0  0  0  0  0  0  0  0  0  0  0  0
    3.9812   -2.8246    5.4449 C   0  0  2  0  0  0  0  0  0  0  0  0
    5.2208   -3.5273    4.8690 C   0  0  0  0  0  0  0  0  0  0  0  0
    4.8320   -3.8213    3.4390 C   0  0  0  0  0  0  0  0  0  0  0  0
    3.5254   -3.0073    3.3256 C   0  0  2  0  0  0  0  0  0  0  0  0
    2.7842   -3.1738    2.1341 O   0  0  0  0  0  0  0  0  0  0  0  0
    3.5193   -2.9966    0.9364 C   0  0  2  0  0  0  0  0  0  0  0  0
    4.0506   -1.6963    0.8507 O   0  0  0  0  0  0  0  0  0  0  0  0
    4.8050   -1.3597   -0.3231 C   0  0  1  0  0  0  0  0  0  0  0  0
    6.1637   -2.1485   -0.3550 C   0  0  0  0  0  0  0  0  0  0  0  0
    7.0896   -1.7164    0.6301 O   0  0  0  0  0  0  0  0  0  0  0  0
    3.8791   -1.5140   -1.5529 C   0  0  1  0  0  0  0  0  0  0  0  0
    4.5190   -1.1151   -2.7733 O   0  0  0  0  0  0  0  0  0  0  0  0
    3.2793   -2.9398   -1.6318 C   0  0  1  0  0  0  0  0  0  0  0  0
    4.2988   -3.8695   -1.9862 O   0  0  0  0  0  0  0  0  0  0  0  0
    2.6294   -3.2956   -0.2754 C   0  0  1  0  0  0  0  0  0  0  0  0
    2.1979   -4.6543   -0.2638 O   0  0  0  0  0  0  0  0  0  0  0  0
    3.8604   -1.7158    3.6275 O   0  0  0  0  0  0  0  0  0  0  0  0
    3.6979   -1.3619    5.0968 C   0  0  1  0  0  0  0  0  0  0  0  0
    2.2325   -1.1892    5.6142 C   0  0  0  0  0  0  0  0  0  0  0  0
    1.6880   -2.0903    4.7831 C   0  0  0  0  0  0  0  0  0  0  0  0
    1.2292   -1.1034    3.8510 C   0  0  0  0  0  0  0  0  0  0  0  0
    0.3165   -0.7605    4.7260 N   0  0  0  0  0  0  0  0  0  0  0  0
   -0.9147   -1.5486    4.7800 C   0  0  0  0  0  0  0  0  0  0  0  0
    1.1314   -0.3036    5.7841 C   0  0  0  0  0  0  0  0  0  0  0  0
    0.8146    1.0972    6.1526 C   0  0  2  0  0  0  0  0  0  0  0  0
   -0.5214    1.6532    5.6163 C   0  0  0  0  0  0  0  0  0  0  0  0
   -0.2225    2.0924    4.1511 C   0  0  0  0  0  0  0  0  0  0  0  0
   -1.1101    1.5066    3.0437 C   0  0  0  0  0  0  0  0  0  0  0  0
   -0.4271    3.6270    4.1008 C   0  0  0  0  0  0  0  0  0  0  0  0
    1.2853    1.7302    3.9876 C   0  0  1  0  0  0  0  0  0  0  0  0
    1.6352    1.9252    5.3674 O   0  0  0  0  0  0  0  0  0  0  0  0
    1.9281    0.3370    3.4362 C   0  0  1  0  0  0  0  0  0  0  0  0
    3.4905    0.6376    3.7104 C   0  0  1  0  0  0  0  0  0  0  0  0
    4.1534    1.2191    4.9630 C   0  0  0  0  0  0  0  0  0  0  0  0
    4.4674   -0.1707    4.6405 C   0  0  1  0  0  0  0  0  0  0  0  0
    2.7307   -3.2017    4.5393 C   0  0  2  0  0  0  0  0  0  0  0  0
    2.1559   -4.6362    4.6307 C   0  0  0  0  0  0  0  0  0  0  0  0
    5.8679   -2.0967    9.3809 H   0  0  0  0  0  0  0  0  0  0  0  0
    5.0404   -3.6449    9.3179 H   0  0  0  0  0  0  0  0  0  0  0  0
    4.1145   -2.1540    9.4939 H   0  0  0  0  0  0  0  0  0  0  0  0
    6.1061   -2.8921    4.9444 H   0  0  0  0  0  0  0  0  0  0  0  0
    5.4385   -4.4491    5.4091 H   0  0  0  0  0  0  0  0  0  0  0  0
    5.6180   -3.5065    2.7634 H   0  0  0  0  0  0  0  0  0  0  0  0
    4.6428   -4.8753    3.2955 H   0  0  0  0  0  0  0  0  0  0  0  0
    4.3491   -3.7030    0.9572 H   0  0  0  0  0  0  0  0  0  0  0  0
    4.9967   -0.2895   -0.2337 H   0  0  0  0  0  0  0  0  0  0  0  0
    6.0561   -3.2203   -0.2431 H   0  0  0  0  0  0  0  0  0  0  0  0
    6.6641   -1.9874   -1.3097 H   0  0  0  0  0  0  0  0  0  0  0  0
    7.7442   -2.4119    0.7645 H   0  0  0  0  0  0  0  0  0  0  0  0
    3.0393   -0.8535   -1.4011 H   0  0  0  0  0  0  0  0  0  0  0  0
    3.8989   -1.2154   -3.5103 H   0  0  0  0  0  0  0  0  0  0  0  0
    2.4978   -2.9547   -2.3962 H   0  0  0  0  0  0  0  0  0  0  0  0
    3.8746   -4.7400   -2.1970 H   0  0  0  0  0  0  0  0  0  0  0  0
    1.7645   -2.6925   -0.1353 H   0  0  0  0  0  0  0  0  0  0  0  0
    2.9295   -5.2355   -0.4942 H   0  0  0  0  0  0  0  0  0  0  0  0
   -0.9546   -1.9220    5.8122 H   0  0  0  0  0  0  0  0  0  0  0  0
   -0.8642   -2.4006    4.0996 H   0  0  0  0  0  0  0  0  0  0  0  0
   -1.8087   -0.9411    4.5671 H   0  0  0  0  0  0  0  0  0  0  0  0
    0.9600    1.2400    7.2155 H   0  0  0  0  0  0  0  0  0  0  0  0
   -1.3584    0.9646    5.7136 H   0  0  0  0  0  0  0  0  0  0  0  0
   -0.7900    2.5230    6.2152 H   0  0  0  0  0  0  0  0  0  0  0  0
   -0.8822    1.9929    2.0927 H   0  0  0  0  0  0  0  0  0  0  0  0
   -2.1621    1.6755    3.2706 H   0  0  0  0  0  0  0  0  0  0  0  0
   -0.9562    0.4429    2.8819 H   0  0  0  0  0  0  0  0  0  0  0  0
   -0.1765    4.0324    3.1251 H   0  0  0  0  0  0  0  0  0  0  0  0
    0.1750    4.1593    4.8374 H   0  0  0  0  0  0  0  0  0  0  0  0
   -1.4688    3.8811    4.2928 H   0  0  0  0  0  0  0  0  0  0  0  0
    1.7994    2.5381    3.4600 H   0  0  0  0  0  0  0  0  0  0  0  0
    1.7960    0.3797    2.3445 H   0  0  0  0  0  0  0  0  0  0  0  0
    3.9370    1.0125    2.7828 H   0  0  0  0  0  0  0  0  0  0  0  0
    4.9530    1.9274    4.7815 H   0  0  0  0  0  0  0  0  0  0  0  0
    3.7193    1.2789    5.9610 H   0  0  0  0  0  0  0  0  0  0  0  0
    5.4820   -0.3595    4.2726 H   0  0  0  0  0  0  0  0  0  0  0  0
    2.9660   -5.3675    4.7044 H   0  0  0  0  0  0  0  0  0  0  0  0
    1.5333   -4.8926    3.7610 H   0  0  0  0  0  0  0  0  0  0  0  0
    1.5503   -4.6978    5.5283 H   0  0  0  0  0  0  0  0  0  0  0  0
  1  2  1  0
  1 42  1  0
  1 43  1  0
  1 44  1  0
  2  3  1  0
  3  4  2  0
  5  3  1  1
  5 22  1  0
  5 40  1  0
  5  6  1  0
  6  7  1  0
  6 45  1  0
  6 46  1  0
  7  8  1  0
  7 47  1  0
  7 48  1  0
  8 40  1  0
  8  9  1  6
  8 21  1  0
  9 10  1  0
 10 19  1  0
 10 11  1  0
 10 49  1  1
 11 12  1  0
 12 13  1  0
 12 15  1  0
 12 50  1  1
 13 14  1  0
 13 51  1  0
 13 52  1  0
 14 53  1  0
 15 16  1  0
 15 17  1  0
 15 54  1  1
 16 55  1  0
 17 18  1  0
 17 19  1  0
 17 56  1  6
 18 57  1  0
 19 20  1  0
 19 58  1  1
 20 59  1  0
 22 21  1  6
 22 39  1  0
 22 23  1  0
 23 28  2  0
 23 24  1  0
 24 25  2  0
 24 40  1  0
 25 36  1  0
 25 26  1  0
 26 27  1  0
 26 28  1  0
 27 60  1  0
 27 61  1  0
 27 62  1  0
 28 29  1  0
 29 35  1  0
 29 30  1  0
 29 63  1  1
 30 31  1  0
 30 64  1  0
 30 65  1  0
 31 32  1  0
 31 33  1  0
 31 34  1  0
 32 66  1  0
 32 67  1  0
 32 68  1  0
 33 69  1  0
 33 70  1  0
 33 71  1  0
 34 35  1  0
 34 36  1  0
 34 72  1  6
 36 37  1  0
 36 73  1  6
 37 39  1  0
 37 38  1  0
 37 74  1  6
 38 39  1  0
 38 75  1  0
 38 76  1  0
 39 77  1  6
 40 41  1  1
 41 78  1  0
 41 79  1  0
 41 80  1  0
M  END
>  <i_m_ct_stereo_status>  (319) 
1

>  <s_m_source_file>  (319) 
/var/tmp/pbs.5083858.sched01/tmpj24v1vso/130xnf0ob2q.sdf

>  <i_m_source_file_index>  (319) 
1

>  <i_lp_mmshare_version>  (319) 
48012

>  <i_f3d_flags>  (319) 
0

>  <s_epik_input>  (319) 
W09IXVtDQEBIXTFbQ0BIXShbT0hdKVtDQEhdKFtPSF0pW0NASF0oW0NIMl1bT0hdKU9bQ0BIXTFPW0NAXShPMikoW0NIMl1bQ0gyXTMpW0NAQF0oW0NIM10pKFtDQEBdMyhDMjQ1KUMoPU8pT1tDSDNdKWM2YzRjN1tDQEBIXThbQ0gyXUMoW0NIM10pKFtDSDNdKVtDQEBIXShPOClbQ0hdKGM2bjdbQ0gzXSlbQ0BASF05W0NIXTVbQ0gyXTk=

>  <s_epik_cmdline>  (319) 
J2VwaWtfcHl0aG9uJywgJy1waHQnLCAnMi4wJywgJy1waCcsICc3LjAnLCAnLXRuJywgJzgnLCAnLW1hJywgJzIwMCcsICctaW1hZScsICc8aW5maWxlLm1hZT4nLCAnLW9tYWUnLCAnPG91dGZpbGUubWFlPic=

>  <r_lp_tautomer_probability>  (319) 
1

>  <r_epik_Ionization_Penalty>  (319) 
4.93662e-06

>  <r_epik_Ionization_Penalty_Charging>  (319) 
0

>  <r_epik_Ionization_Penalty_Neutral>  (319) 
4.93662e-06

>  <r_epik_State_Penalty>  (319) 
-0

>  <r_epik_Charging_Adjusted_Penalty>  (319) 
0

>  <i_epik_Tot_Q>  (319) 
0

>  <i_epik_Tot_abs_Q>  (319) 
0

>  <s_epik_Chemistry_Notes>  (319) 
This compound has an ester and may undergo hydrolysis at high or low pH. This compound contains an acetal/aminal-like group ( X-CH(R)-Y where X, Y are N, S, or O) that may be acid/base labile, releasing an aldehyde.

>  <s_lp_Force_Field>  (319) 
OPLS3e

>  <r_lp_Energy>  (319) 
280.485

>  <b_lp_Chiralities_Consistent>  (319) 
1

>  <s_lp_Variant>  (319) 
90:0-2

>  <s_i_glide_gridfile>  (319) 
pfpi4k_grid

>  <i_i_glide_lignum>  (319) 
1

>  <i_i_glide_rotatable_bonds>  (319) 
9

>  <r_i_docking_score>  (319) 
-2.24447

>  <r_i_glide_ligand_efficiency>  (319) 
-0.0547431

>  <r_i_glide_ligand_efficiency_sa>  (319) 
-0.188766

>  <r_i_glide_ligand_efficiency_ln>  (319) 
-0.476171

>  <r_i_glide_gscore>  (319) 
-2.24447

>  <r_i_glide_lipo>  (319) 
-0.0705833

>  <r_i_glide_hbond>  (319) 
0

>  <r_i_glide_metal>  (319) 
-0

>  <r_i_glide_rewards>  (319) 
-5.52601e-05

>  <r_i_glide_evdw>  (319) 
-24.6482

>  <r_i_glide_ecoul>  (319) 
-7.22958

>  <r_i_glide_erotb>  (319) 
0.160243

>  <r_i_glide_esite>  (319) 
-0.0172255

>  <r_i_glide_emodel>  (319) 
-34.6673

>  <r_i_glide_energy>  (319) 
-31.8777

>  <r_i_glide_einternal>  (319) 
2.07641

>  <r_i_glide_intrahb_reward>  (319) 
-0

>  <i_i_glide_confnum>  (319) 
3

>  <i_i_glide_posenum>  (319) 
1

>  <r_i_glide_eff_state_penalty>  (319) 
0

>  <ligand_id>  (319) 
90

>  <original_smiles>  (319) 
COC(=O)C12CCC3(OC4OC(CO)C(O)C(O)C4O)OC14c1c(c5n(C)c1C1CC(C)(C)C(O1)C5C1CC14)C32C

>  <smiles>  (319) 
[H]OC([H])([H])C1([H])OC([H])(OC23OC45c6c(c7n(C([H])([H])[H])c6C6([H])OC([H])(C7([H])C7([H])C([H])([H])C47[H])C(C([H])([H])[H])(C([H])([H])[H])C6([H])[H])C2(C([H])([H])[H])C5(C(=O)OC([H])([H])[H])C([H])([H])C3([H])[H])C([H])(O[H])C([H])(O[H])C1([H])O[H]

$$$$
90:2:0
     RDKit          3D

 80 88  0  0  1  0  0  0  0  0999 V2000
    3.1782   -3.0418    9.5183 C   0  0  0  0  0  0  0  0  0  0  0  0
    3.4452   -2.5671    8.2089 O   0  0  0  0  0  0  0  0  0  0  0  0
    2.5807   -2.8140    7.2019 C   0  0  0  0  0  0  0  0  0  0  0  0
    1.4803   -3.3554    7.3244 O   0  0  0  0  0  0  0  0  0  0  0  0
    3.1385   -2.3233    5.8327 C   0  0  2  0  0  0  0  0  0  0  0  0
    4.4838   -3.1188    5.6757 C   0  0  0  0  0  0  0  0  0  0  0  0
    4.6600   -3.1601    4.1857 C   0  0  0  0  0  0  0  0  0  0  0  0
    3.5210   -2.2062    3.8238 C   0  0  2  0  0  0  0  0  0  0  0  0
    3.2843   -2.0477    2.4449 O   0  0  0  0  0  0  0  0  0  0  0  0
    3.5442   -3.1176    1.5475 C   0  0  2  0  0  0  0  0  0  0  0  0
    4.9087   -3.3659    1.3114 O   0  0  0  0  0  0  0  0  0  0  0  0
    5.6229   -2.2369    0.8069 C   0  0  1  0  0  0  0  0  0  0  0  0
    7.1081   -2.6107    0.7561 C   0  0  0  0  0  0  0  0  0  0  0  0
    7.9060   -1.4596    0.4795 O   0  0  0  0  0  0  0  0  0  0  0  0
    5.0566   -1.8958   -0.5790 C   0  0  1  0  0  0  0  0  0  0  0  0
    5.3595   -2.9483   -1.4979 O   0  0  0  0  0  0  0  0  0  0  0  0
    3.5558   -1.6793   -0.4960 C   0  0  1  0  0  0  0  0  0  0  0  0
    3.0157   -1.4363   -1.7933 O   0  0  0  0  0  0  0  0  0  0  0  0
    2.8458   -2.8566    0.2104 C   0  0  1  0  0  0  0  0  0  0  0  0
    2.8982   -4.0555   -0.5673 O   0  0  0  0  0  0  0  0  0  0  0  0
    3.9039   -1.0420    4.5639 O   0  0  0  0  0  0  0  0  0  0  0  0
    3.1767   -0.7047    5.8310 C   0  0  2  0  0  0  0  0  0  0  0  0
    1.6433   -0.6078    5.7651 C   0  0  0  0  0  0  0  0  0  0  0  0
    1.2590   -1.4664    4.7992 C   0  0  0  0  0  0  0  0  0  0  0  0
    0.5128   -0.6457    3.9063 C   0  0  0  0  0  0  0  0  0  0  0  0
   -0.3279   -0.3661    4.8889 N   0  0  0  0  0  0  0  0  0  0  0  0
   -1.4630   -1.2689    5.0310 C   0  0  0  0  0  0  0  0  0  0  0  0
    0.4745    0.1542    5.9287 C   0  0  0  0  0  0  0  0  0  0  0  0
    0.1889    1.5653    6.3025 C   0  0  2  0  0  0  0  0  0  0  0  0
   -1.1526    2.1177    5.7662 C   0  0  0  0  0  0  0  0  0  0  0  0
   -0.8525    2.5859    4.3166 C   0  0  0  0  0  0  0  0  0  0  0  0
   -1.7869    2.0206    3.2390 C   0  0  0  0  0  0  0  0  0  0  0  0
   -1.0067    4.1315    4.2747 C   0  0  0  0  0  0  0  0  0  0  0  0
    0.6403    2.1722    4.1255 C   0  0  1  0  0  0  0  0  0  0  0  0
    1.0539    2.3325    5.4879 O   0  0  0  0  0  0  0  0  0  0  0  0
    1.1306    0.7884    3.4419 C   0  0  1  0  0  0  0  0  0  0  0  0
    2.6541    0.6873    3.4790 C   0  0  1  0  0  0  0  0  0  0  0  0
    3.9090    1.4040    3.9315 C   0  0  0  0  0  0  0  0  0  0  0  0
    3.2153    0.6337    4.9892 C   0  0  2  0  0  0  0  0  0  0  0  0
    2.2684   -2.5565    4.5523 C   0  0  2  0  0  0  0  0  0  0  0  0
    1.7026   -3.9764    4.2947 C   0  0  0  0  0  0  0  0  0  0  0  0
    3.9764   -2.7425   10.1935 H   0  0  0  0  0  0  0  0  0  0  0  0
    3.1346   -4.1274    9.5323 H   0  0  0  0  0  0  0  0  0  0  0  0
    2.2453   -2.6485    9.9117 H   0  0  0  0  0  0  0  0  0  0  0  0
    5.3117   -2.6087    6.1665 H   0  0  0  0  0  0  0  0  0  0  0  0
    4.4289   -4.1295    6.0701 H   0  0  0  0  0  0  0  0  0  0  0  0
    5.6289   -2.7769    3.8688 H   0  0  0  0  0  0  0  0  0  0  0  0
    4.5203   -4.1628    3.7998 H   0  0  0  0  0  0  0  0  0  0  0  0
    3.1603   -4.0364    1.9998 H   0  0  0  0  0  0  0  0  0  0  0  0
    5.4718   -1.4184    1.5122 H   0  0  0  0  0  0  0  0  0  0  0  0
    7.4092   -3.0667    1.6817 H   0  0  0  0  0  0  0  0  0  0  0  0
    7.3120   -3.3749    0.0010 H   0  0  0  0  0  0  0  0  0  0  0  0
    7.7771   -0.8060    1.1937 H   0  0  0  0  0  0  0  0  0  0  0  0
    5.5311   -0.9727   -0.9225 H   0  0  0  0  0  0  0  0  0  0  0  0
    4.7653   -3.6897   -1.2563 H   0  0  0  0  0  0  0  0  0  0  0  0
    3.3700   -0.7829    0.0950 H   0  0  0  0  0  0  0  0  0  0  0  0
    2.0420   -1.3781   -1.6509 H   0  0  0  0  0  0  0  0  0  0  0  0
    1.8168   -2.6052    0.4345 H   0  0  0  0  0  0  0  0  0  0  0  0
    2.4589   -4.7815   -0.1083 H   0  0  0  0  0  0  0  0  0  0  0  0
   -1.4609   -1.6364    6.0531 H   0  0  0  0  0  0  0  0  0  0  0  0
   -1.3216   -2.1401    4.3806 H   0  0  0  0  0  0  0  0  0  0  0  0
   -2.4116   -0.7662    4.8170 H   0  0  0  0  0  0  0  0  0  0  0  0
    0.3344    1.7157    7.3685 H   0  0  0  0  0  0  0  0  0  0  0  0
   -1.9844    1.4150    5.8344 H   0  0  0  0  0  0  0  0  0  0  0  0
   -1.4347    2.9693    6.3826 H   0  0  0  0  0  0  0  0  0  0  0  0
   -1.5025    2.3900    2.2521 H   0  0  0  0  0  0  0  0  0  0  0  0
   -2.8190    2.3140    3.4242 H   0  0  0  0  0  0  0  0  0  0  0  0
   -1.7604    0.9364    3.1908 H   0  0  0  0  0  0  0  0  0  0  0  0
   -0.7643    4.5361    3.2934 H   0  0  0  0  0  0  0  0  0  0  0  0
   -0.3655    4.6353    4.9977 H   0  0  0  0  0  0  0  0  0  0  0  0
   -2.0314    4.4274    4.4973 H   0  0  0  0  0  0  0  0  0  0  0  0
    1.1503    2.9639    3.5870 H   0  0  0  0  0  0  0  0  0  0  0  0
    0.8581    0.8866    2.3903 H   0  0  0  0  0  0  0  0  0  0  0  0
    3.0090    0.1400    2.6182 H   0  0  0  0  0  0  0  0  0  0  0  0
    4.8890    1.0133    3.6648 H   0  0  0  0  0  0  0  0  0  0  0  0
    3.8498    2.4803    4.0264 H   0  0  0  0  0  0  0  0  0  0  0  0
    3.0451    1.4145    5.7255 H   0  0  0  0  0  0  0  0  0  0  0  0
    2.4651   -4.7450    4.4261 H   0  0  0  0  0  0  0  0  0  0  0  0
    1.2707   -4.1077    3.2980 H   0  0  0  0  0  0  0  0  0  0  0  0
    0.9163   -4.2176    5.0112 H   0  0  0  0  0  0  0  0  0  0  0  0
  1  2  1  0
  1 42  1  0
  1 43  1  0
  1 44  1  0
  2  3  1  0
  3  4  2  0
  5  3  1  1
  5 22  1  0
  5 40  1  0
  5  6  1  0
  6  7  1  0
  6 45  1  0
  6 46  1  0
  7  8  1  0
  7 47  1  0
  7 48  1  0
  8 40  1  0
  8  9  1  6
  8 21  1  0
  9 10  1  0
 10 19  1  0
 10 11  1  0
 10 49  1  1
 11 12  1  0
 12 13  1  0
 12 15  1  0
 12 50  1  1
 13 14  1  0
 13 51  1  0
 13 52  1  0
 14 53  1  0
 15 16  1  0
 15 17  1  0
 15 54  1  6
 16 55  1  0
 17 18  1  0
 17 19  1  0
 17 56  1  1
 18 57  1  0
 19 20  1  0
 19 58  1  1
 20 59  1  0
 22 21  1  1
 22 39  1  0
 22 23  1  0
 23 28  2  0
 23 24  1  0
 24 25  2  0
 24 40  1  0
 25 36  1  0
 25 26  1  0
 26 27  1  0
 26 28  1  0
 27 60  1  0
 27 61  1  0
 27 62  1  0
 28 29  1  0
 29 35  1  0
 29 30  1  0
 29 63  1  1
 30 31  1  0
 30 64  1  0
 30 65  1  0
 31 32  1  0
 31 33  1  0
 31 34  1  0
 32 66  1  0
 32 67  1  0
 32 68  1  0
 33 69  1  0
 33 70  1  0
 33 71  1  0
 34 35  1  0
 34 36  1  0
 34 72  1  6
 36 37  1  0
 36 73  1  6
 37 39  1  0
 37 38  1  0
 37 74  1  6
 38 39  1  0
 38 75  1  0
 38 76  1  0
 39 77  1  1
 40 41  1  6
 41 78  1  0
 41 79  1  0
 41 80  1  0
M  END
>  <i_m_ct_stereo_status>  (320) 
1

>  <s_m_source_file>  (320) 
/var/tmp/pbs.5083858.sched01/tmpj24v1vso/130xnf0ob2q.sdf

>  <i_m_source_file_index>  (320) 
2

>  <i_lp_mmshare_version>  (320) 
48012

>  <i_f3d_flags>  (320) 
0

>  <s_epik_input>  (320) 
W09IXVtDQEBIXTFbQ0BIXShbT0hdKVtDQEhdKFtPSF0pW0NASF0oW0NIMl1bT0hdKU9bQ0BIXTFPW0NAXShPMikoW0NIMl1bQ0gyXTMpW0NAQF0oW0NIM10pKFtDQEBdMyhDMjQ1KUMoPU8pT1tDSDNdKWM2YzRjN1tDQEBIXThbQ0gyXUMoW0NIM10pKFtDSDNdKVtDQEBIXShPOClbQ0hdKGM2bjdbQ0gzXSlbQ0BASF05W0NIXTVbQ0gyXTk=

>  <s_epik_cmdline>  (320) 
J2VwaWtfcHl0aG9uJywgJy1waHQnLCAnMi4wJywgJy1waCcsICc3LjAnLCAnLXRuJywgJzgnLCAnLW1hJywgJzIwMCcsICctaW1hZScsICc8aW5maWxlLm1hZT4nLCAnLW9tYWUnLCAnPG91dGZpbGUubWFlPic=

>  <r_lp_tautomer_probability>  (320) 
1

>  <r_epik_Ionization_Penalty>  (320) 
4.93662e-06

>  <r_epik_Ionization_Penalty_Charging>  (320) 
0

>  <r_epik_Ionization_Penalty_Neutral>  (320) 
4.93662e-06

>  <r_epik_State_Penalty>  (320) 
-0

>  <r_epik_Charging_Adjusted_Penalty>  (320) 
0

>  <i_epik_Tot_Q>  (320) 
0

>  <i_epik_Tot_abs_Q>  (320) 
0

>  <s_epik_Chemistry_Notes>  (320) 
This compound has an ester and may undergo hydrolysis at high or low pH. This compound contains an acetal/aminal-like group ( X-CH(R)-Y where X, Y are N, S, or O) that may be acid/base labile, releasing an aldehyde.

>  <s_lp_Force_Field>  (320) 
OPLS3e

>  <r_lp_Energy>  (320) 
319.809

>  <b_lp_Chiralities_Consistent>  (320) 
1

>  <s_lp_Variant>  (320) 
90:0-3

>  <s_i_glide_gridfile>  (320) 
pfpi4k_grid

>  <i_i_glide_lignum>  (320) 
2

>  <i_i_glide_rotatable_bonds>  (320) 
9

>  <r_i_docking_score>  (320) 
-3.04961

>  <r_i_glide_ligand_efficiency>  (320) 
-0.0743807

>  <r_i_glide_ligand_efficiency_sa>  (320) 
-0.256481

>  <r_i_glide_ligand_efficiency_ln>  (320) 
-0.646984

>  <r_i_glide_gscore>  (320) 
-3.04961

>  <r_i_glide_lipo>  (320) 
-0.183708

>  <r_i_glide_hbond>  (320) 
-0.210029

>  <r_i_glide_metal>  (320) 
-0

>  <r_i_glide_rewards>  (320) 
-0.500038

>  <r_i_glide_evdw>  (320) 
-23.0368

>  <r_i_glide_ecoul>  (320) 
-7.62628

>  <r_i_glide_erotb>  (320) 
0.160243

>  <r_i_glide_esite>  (320) 
-0.0202923

>  <r_i_glide_emodel>  (320) 
-39.8672

>  <r_i_glide_energy>  (320) 
-30.6631

>  <r_i_glide_einternal>  (320) 
4.00974

>  <r_i_glide_intrahb_reward>  (320) 
-0.5

>  <i_i_glide_confnum>  (320) 
1

>  <i_i_glide_posenum>  (320) 
33

>  <r_i_glide_eff_state_penalty>  (320) 
0

>  <ligand_id>  (320) 
90

>  <original_smiles>  (320) 
COC(=O)C12CCC3(OC4OC(CO)C(O)C(O)C4O)OC14c1c(c5n(C)c1C1CC(C)(C)C(O1)C5C1CC14)C32C

>  <smiles>  (320) 
[H]OC([H])([H])C1([H])OC([H])(OC23OC45c6c(c7n(C([H])([H])[H])c6C6([H])OC([H])(C7([H])C7([H])C([H])([H])C47[H])C(C([H])([H])[H])(C([H])([H])[H])C6([H])[H])C2(C([H])([H])[H])C5(C(=O)OC([H])([H])[H])C([H])([H])C3([H])[H])C([H])(O[H])C([H])(O[H])C1([H])O[H]

$$$$
90:2:1
     RDKit          3D

 80 88  0  0  1  0  0  0  0  0999 V2000
    0.9461  -10.2050    4.5754 C   0  0  0  0  0  0  0  0  0  0  0  0
    1.9563   -9.3187    4.1180 O   0  0  0  0  0  0  0  0  0  0  0  0
    1.6322   -8.1712    3.4793 C   0  0  0  0  0  0  0  0  0  0  0  0
    0.4886   -7.7870    3.2367 O   0  0  0  0  0  0  0  0  0  0  0  0
    2.9084   -7.3619    3.0697 C   0  0  2  0  0  0  0  0  0  0  0  0
    3.5958   -8.2743    1.9837 C   0  0  0  0  0  0  0  0  0  0  0  0
    4.3653   -7.2725    1.1721 C   0  0  0  0  0  0  0  0  0  0  0  0
    4.1295   -6.0558    2.0820 C   0  0  2  0  0  0  0  0  0  0  0  0
    4.5523   -4.8070    1.6125 O   0  0  0  0  0  0  0  0  0  0  0  0
    4.7949   -4.5681    0.2368 C   0  0  2  0  0  0  0  0  0  0  0  0
    6.1492   -4.7696   -0.1281 O   0  0  0  0  0  0  0  0  0  0  0  0
    7.0784   -3.9374    0.5669 C   0  0  1  0  0  0  0  0  0  0  0  0
    8.5060   -4.3453    0.1608 C   0  0  0  0  0  0  0  0  0  0  0  0
    9.4513   -3.5738    0.8884 O   0  0  0  0  0  0  0  0  0  0  0  0
    6.7623   -2.4648    0.2064 C   0  0  1  0  0  0  0  0  0  0  0  0
    7.0405   -2.2447   -1.1729 O   0  0  0  0  0  0  0  0  0  0  0  0
    5.2854   -2.1373    0.5275 C   0  0  1  0  0  0  0  0  0  0  0  0
    4.9304   -0.7981    0.1713 O   0  0  0  0  0  0  0  0  0  0  0  0
    4.3420   -3.1576   -0.1232 C   0  0  1  0  0  0  0  0  0  0  0  0
    4.2982   -3.0375   -1.5422 O   0  0  0  0  0  0  0  0  0  0  0  0
    4.6645   -6.5257    3.3190 O   0  0  0  0  0  0  0  0  0  0  0  0
    3.7333   -6.9693    4.4012 C   0  0  2  0  0  0  0  0  0  0  0  0
    2.6534   -5.9817    4.8665 C   0  0  0  0  0  0  0  0  0  0  0  0
    2.3589   -5.2178    3.7746 C   0  0  0  0  0  0  0  0  0  0  0  0
    2.6041   -3.8907    4.2149 C   0  0  0  0  0  0  0  0  0  0  0  0
    1.6695   -4.0633    5.1542 N   0  0  0  0  0  0  0  0  0  0  0  0
    0.3104   -3.6918    4.7860 C   0  0  0  0  0  0  0  0  0  0  0  0
    2.0786   -5.2050    5.8776 C   0  0  0  0  0  0  0  0  0  0  0  0
    2.3803   -4.9813    7.3138 C   0  0  2  0  0  0  0  0  0  0  0  0
    1.8861   -3.6280    7.8793 C   0  0  0  0  0  0  0  0  0  0  0  0
    2.9797   -2.5921    7.4995 C   0  0  0  0  0  0  0  0  0  0  0  0
    2.4722   -1.3490    6.7487 C   0  0  0  0  0  0  0  0  0  0  0  0
    3.6427   -2.0875    8.8108 C   0  0  0  0  0  0  0  0  0  0  0  0
    3.9891   -3.4517    6.6699 C   0  0  1  0  0  0  0  0  0  0  0  0
    3.7621   -4.7002    7.3402 O   0  0  0  0  0  0  0  0  0  0  0  0
    3.9616   -3.5655    5.0430 C   0  0  1  0  0  0  0  0  0  0  0  0
    5.0780   -4.5333    4.5774 C   0  0  1  0  0  0  0  0  0  0  0  0
    6.1869   -5.4445    5.0630 C   0  0  0  0  0  0  0  0  0  0  0  0
    4.8144   -6.0307    5.1069 C   0  0  2  0  0  0  0  0  0  0  0  0
    2.6981   -5.9349    2.4828 C   0  0  2  0  0  0  0  0  0  0  0  0
    1.7154   -5.7443    1.3081 C   0  0  0  0  0  0  0  0  0  0  0  0
    1.4026  -11.0600    5.0684 H   0  0  0  0  0  0  0  0  0  0  0  0
    0.3469  -10.5777    3.7503 H   0  0  0  0  0  0  0  0  0  0  0  0
    0.2945   -9.7176    5.2937 H   0  0  0  0  0  0  0  0  0  0  0  0
    4.2413   -9.0266    2.4354 H   0  0  0  0  0  0  0  0  0  0  0  0
    2.8726   -8.7765    1.3480 H   0  0  0  0  0  0  0  0  0  0  0  0
    5.4249   -7.5048    1.0874 H   0  0  0  0  0  0  0  0  0  0  0  0
    3.9176   -7.2117    0.1916 H   0  0  0  0  0  0  0  0  0  0  0  0
    4.2124   -5.2471   -0.3806 H   0  0  0  0  0  0  0  0  0  0  0  0
    6.9675   -4.1128    1.6395 H   0  0  0  0  0  0  0  0  0  0  0  0
    8.6880   -5.4064    0.3469 H   0  0  0  0  0  0  0  0  0  0  0  0
    8.6702   -4.1983   -0.9084 H   0  0  0  0  0  0  0  0  0  0  0  0
    9.3622   -3.7625    1.8313 H   0  0  0  0  0  0  0  0  0  0  0  0
    7.3950   -1.8186    0.8143 H   0  0  0  0  0  0  0  0  0  0  0  0
    6.4291   -2.8102   -1.6711 H   0  0  0  0  0  0  0  0  0  0  0  0
    5.1640   -2.2355    1.6046 H   0  0  0  0  0  0  0  0  0  0  0  0
    5.5001   -0.1758    0.6464 H   0  0  0  0  0  0  0  0  0  0  0  0
    3.3270   -3.0196    0.2651 H   0  0  0  0  0  0  0  0  0  0  0  0
    3.9351   -2.1659   -1.7493 H   0  0  0  0  0  0  0  0  0  0  0  0
   -0.3246   -4.5671    4.9521 H   0  0  0  0  0  0  0  0  0  0  0  0
    0.2379   -3.4251    3.7197 H   0  0  0  0  0  0  0  0  0  0  0  0
   -0.0685   -2.8582    5.3859 H   0  0  0  0  0  0  0  0  0  0  0  0
    2.0992   -5.8330    7.9164 H   0  0  0  0  0  0  0  0  0  0  0  0
    0.8865   -3.3484    7.5479 H   0  0  0  0  0  0  0  0  0  0  0  0
    1.8225   -3.7162    8.9657 H   0  0  0  0  0  0  0  0  0  0  0  0
    3.2995   -0.6783    6.5109 H   0  0  0  0  0  0  0  0  0  0  0  0
    1.7597   -0.7939    7.3586 H   0  0  0  0  0  0  0  0  0  0  0  0
    1.9802   -1.5950    5.8123 H   0  0  0  0  0  0  0  0  0  0  0  0
    4.4555   -1.3894    8.6191 H   0  0  0  0  0  0  0  0  0  0  0  0
    4.0520   -2.9006    9.4105 H   0  0  0  0  0  0  0  0  0  0  0  0
    2.9233   -1.5645    9.4419 H   0  0  0  0  0  0  0  0  0  0  0  0
    5.0012   -3.1562    6.9432 H   0  0  0  0  0  0  0  0  0  0  0  0
    4.2840   -2.5813    4.7070 H   0  0  0  0  0  0  0  0  0  0  0  0
    5.4148   -4.2371    3.6004 H   0  0  0  0  0  0  0  0  0  0  0  0
    6.8768   -5.8757    4.3396 H   0  0  0  0  0  0  0  0  0  0  0  0
    6.6250   -5.2257    6.0273 H   0  0  0  0  0  0  0  0  0  0  0  0
    4.7273   -6.2882    6.1538 H   0  0  0  0  0  0  0  0  0  0  0  0
    1.8334   -6.4974    0.5268 H   0  0  0  0  0  0  0  0  0  0  0  0
    1.8309   -4.7702    0.8278 H   0  0  0  0  0  0  0  0  0  0  0  0
    0.6851   -5.8439    1.6577 H   0  0  0  0  0  0  0  0  0  0  0  0
  1  2  1  0
  1 42  1  0
  1 43  1  0
  1 44  1  0
  2  3  1  0
  3  4  2  0
  5  3  1  1
  5 22  1  0
  5 40  1  0
  5  6  1  0
  6  7  1  0
  6 45  1  0
  6 46  1  0
  7  8  1  0
  7 47  1  0
  7 48  1  0
  8 40  1  0
  8  9  1  6
  8 21  1  0
  9 10  1  0
 10 19  1  0
 10 11  1  0
 10 49  1  6
 11 12  1  0
 12 13  1  0
 12 15  1  0
 12 50  1  1
 13 14  1  0
 13 51  1  0
 13 52  1  0
 14 53  1  0
 15 16  1  0
 15 17  1  0
 15 54  1  1
 16 55  1  0
 17 18  1  0
 17 19  1  0
 17 56  1  1
 18 57  1  0
 19 20  1  0
 19 58  1  1
 20 59  1  0
 22 21  1  1
 22 39  1  0
 22 23  1  0
 23 28  2  0
 23 24  1  0
 24 25  2  0
 24 40  1  0
 25 36  1  0
 25 26  1  0
 26 27  1  0
 26 28  1  0
 27 60  1  0
 27 61  1  0
 27 62  1  0
 28 29  1  0
 29 35  1  0
 29 30  1  0
 29 63  1  1
 30 31  1  0
 30 64  1  0
 30 65  1  0
 31 32  1  0
 31 33  1  0
 31 34  1  0
 32 66  1  0
 32 67  1  0
 32 68  1  0
 33 69  1  0
 33 70  1  0
 33 71  1  0
 34 35  1  0
 34 36  1  0
 34 72  1  6
 36 37  1  0
 36 73  1  6
 37 39  1  0
 37 38  1  0
 37 74  1  6
 38 39  1  0
 38 75  1  0
 38 76  1  0
 39 77  1  1
 40 41  1  6
 41 78  1  0
 41 79  1  0
 41 80  1  0
M  END
>  <i_m_ct_stereo_status>  (321) 
1

>  <s_m_source_file>  (321) 
/var/tmp/pbs.5083858.sched01/tmpj24v1vso/130xnf0ob2q.sdf

>  <i_m_source_file_index>  (321) 
2

>  <i_lp_mmshare_version>  (321) 
48012

>  <i_f3d_flags>  (321) 
0

>  <s_epik_input>  (321) 
W09IXVtDQEBIXTFbQ0BIXShbT0hdKVtDQEhdKFtPSF0pW0NASF0oW0NIMl1bT0hdKU9bQ0BIXTFPW0NAXShPMikoW0NIMl1bQ0gyXTMpW0NAQF0oW0NIM10pKFtDQEBdMyhDMjQ1KUMoPU8pT1tDSDNdKWM2YzRjN1tDQEBIXThbQ0gyXUMoW0NIM10pKFtDSDNdKVtDQEBIXShPOClbQ0hdKGM2bjdbQ0gzXSlbQ0BASF05W0NIXTVbQ0gyXTk=

>  <s_epik_cmdline>  (321) 
J2VwaWtfcHl0aG9uJywgJy1waHQnLCAnMi4wJywgJy1waCcsICc3LjAnLCAnLXRuJywgJzgnLCAnLW1hJywgJzIwMCcsICctaW1hZScsICc8aW5maWxlLm1hZT4nLCAnLW9tYWUnLCAnPG91dGZpbGUubWFlPic=

>  <r_lp_tautomer_probability>  (321) 
1

>  <r_epik_Ionization_Penalty>  (321) 
4.93662e-06

>  <r_epik_Ionization_Penalty_Charging>  (321) 
0

>  <r_epik_Ionization_Penalty_Neutral>  (321) 
4.93662e-06

>  <r_epik_State_Penalty>  (321) 
-0

>  <r_epik_Charging_Adjusted_Penalty>  (321) 
0

>  <i_epik_Tot_Q>  (321) 
0

>  <i_epik_Tot_abs_Q>  (321) 
0

>  <s_epik_Chemistry_Notes>  (321) 
This compound has an ester and may undergo hydrolysis at high or low pH. This compound contains an acetal/aminal-like group ( X-CH(R)-Y where X, Y are N, S, or O) that may be acid/base labile, releasing an aldehyde.

>  <s_lp_Force_Field>  (321) 
OPLS3e

>  <r_lp_Energy>  (321) 
319.809

>  <b_lp_Chiralities_Consistent>  (321) 
1

>  <s_lp_Variant>  (321) 
90:0-3

>  <s_i_glide_gridfile>  (321) 
pfpi4k_grid

>  <i_i_glide_lignum>  (321) 
2

>  <i_i_glide_rotatable_bonds>  (321) 
9

>  <r_i_docking_score>  (321) 
-2.9957

>  <r_i_glide_ligand_efficiency>  (321) 
-0.0730659

>  <r_i_glide_ligand_efficiency_sa>  (321) 
-0.251947

>  <r_i_glide_ligand_efficiency_ln>  (321) 
-0.635548

>  <r_i_glide_gscore>  (321) 
-2.9957

>  <r_i_glide_lipo>  (321) 
-0.370993

>  <r_i_glide_hbond>  (321) 
0

>  <r_i_glide_metal>  (321) 
-0

>  <r_i_glide_rewards>  (321) 
-0.581766

>  <r_i_glide_evdw>  (321) 
-24.4638

>  <r_i_glide_ecoul>  (321) 
-6.46563

>  <r_i_glide_erotb>  (321) 
0.160243

>  <r_i_glide_esite>  (321) 
-0.0101522

>  <r_i_glide_emodel>  (321) 
-39.8598

>  <r_i_glide_energy>  (321) 
-30.9294

>  <r_i_glide_einternal>  (321) 
5.39306

>  <r_i_glide_intrahb_reward>  (321) 
-0.5

>  <i_i_glide_confnum>  (321) 
1

>  <i_i_glide_posenum>  (321) 
29

>  <r_i_glide_eff_state_penalty>  (321) 
0

>  <ligand_id>  (321) 
90

>  <original_smiles>  (321) 
COC(=O)C12CCC3(OC4OC(CO)C(O)C(O)C4O)OC14c1c(c5n(C)c1C1CC(C)(C)C(O1)C5C1CC14)C32C

>  <smiles>  (321) 
[H]OC([H])([H])C1([H])OC([H])(OC23OC45c6c(c7n(C([H])([H])[H])c6C6([H])OC([H])(C7([H])C7([H])C([H])([H])C47[H])C(C([H])([H])[H])(C([H])([H])[H])C6([H])[H])C2(C([H])([H])[H])C5(C(=O)OC([H])([H])[H])C([H])([H])C3([H])[H])C([H])(O[H])C([H])(O[H])C1([H])O[H]

$$$$
90:2:2
     RDKit          3D

 80 88  0  0  1  0  0  0  0  0999 V2000
    6.7786  -10.9012    6.1001 C   0  0  0  0  0  0  0  0  0  0  0  0
    6.4320   -9.5620    5.8032 O   0  0  0  0  0  0  0  0  0  0  0  0
    6.3532   -9.1539    4.5227 C   0  0  0  0  0  0  0  0  0  0  0  0
    6.6009   -9.8566    3.5405 O   0  0  0  0  0  0  0  0  0  0  0  0
    5.9095   -7.6699    4.4188 C   0  0  2  0  0  0  0  0  0  0  0  0
    7.1698   -6.8796    4.9128 C   0  0  0  0  0  0  0  0  0  0  0  0
    7.0066   -5.5570    4.2160 C   0  0  0  0  0  0  0  0  0  0  0  0
    5.6107   -5.8004    3.6583 C   0  0  2  0  0  0  0  0  0  0  0  0
    5.0841   -4.7725    2.8379 O   0  0  0  0  0  0  0  0  0  0  0  0
    5.9051   -3.9995    1.9703 C   0  0  2  0  0  0  0  0  0  0  0  0
    5.7925   -2.6199    2.2509 O   0  0  0  0  0  0  0  0  0  0  0  0
    4.4494   -2.1006    2.1299 C   0  0  1  0  0  0  0  0  0  0  0  0
    4.4407   -0.6381    2.5905 C   0  0  0  0  0  0  0  0  0  0  0  0
    3.1283   -0.0834    2.5340 O   0  0  0  0  0  0  0  0  0  0  0  0
    4.0074   -2.2455    0.6575 C   0  0  1  0  0  0  0  0  0  0  0  0
    4.7861   -1.3884   -0.1810 O   0  0  0  0  0  0  0  0  0  0  0  0
    4.1279   -3.7023    0.2093 C   0  0  1  0  0  0  0  0  0  0  0  0
    3.7347   -3.8421   -1.1523 O   0  0  0  0  0  0  0  0  0  0  0  0
    5.5335   -4.2630    0.4885 C   0  0  1  0  0  0  0  0  0  0  0  0
    6.5215   -3.6180   -0.3095 O   0  0  0  0  0  0  0  0  0  0  0  0
    4.8855   -6.0486    4.8631 O   0  0  0  0  0  0  0  0  0  0  0  0
    4.5106   -7.4485    5.2147 C   0  0  2  0  0  0  0  0  0  0  0  0
    3.7418   -8.2391    4.1276 C   0  0  0  0  0  0  0  0  0  0  0  0
    4.1226   -7.7244    2.9478 C   0  0  0  0  0  0  0  0  0  0  0  0
    2.8773   -7.3520    2.3900 C   0  0  0  0  0  0  0  0  0  0  0  0
    2.5004   -8.6293    2.4110 N   0  0  0  0  0  0  0  0  0  0  0  0
    2.7928   -9.4933    1.2634 C   0  0  0  0  0  0  0  0  0  0  0  0
    2.5959   -8.9815    3.7561 C   0  0  0  0  0  0  0  0  0  0  0  0
    1.3102   -9.3221    4.4506 C   0  0  2  0  0  0  0  0  0  0  0  0
    0.1250   -9.5724    3.4978 C   0  0  0  0  0  0  0  0  0  0  0  0
   -0.4572   -8.1687    3.1741 C   0  0  0  0  0  0  0  0  0  0  0  0
   -0.5893   -7.8508    1.6809 C   0  0  0  0  0  0  0  0  0  0  0  0
   -1.8842   -8.0841    3.7870 C   0  0  0  0  0  0  0  0  0  0  0  0
    0.5276   -7.2173    3.9219 C   0  0  1  0  0  0  0  0  0  0  0  0
    0.8475   -8.1030    5.0030 O   0  0  0  0  0  0  0  0  0  0  0  0
    1.8026   -6.4971    3.2364 C   0  0  1  0  0  0  0  0  0  0  0  0
    2.5751   -5.6647    4.2685 C   0  0  1  0  0  0  0  0  0  0  0  0
    2.6027   -5.2641    5.7409 C   0  0  0  0  0  0  0  0  0  0  0  0
    3.1819   -6.6043    5.4281 C   0  0  2  0  0  0  0  0  0  0  0  0
    5.5083   -7.1392    3.0162 C   0  0  2  0  0  0  0  0  0  0  0  0
    6.4546   -7.4163    1.8031 C   0  0  0  0  0  0  0  0  0  0  0  0
    6.7838  -11.0429    7.1765 H   0  0  0  0  0  0  0  0  0  0  0  0
    7.7668  -11.1477    5.7214 H   0  0  0  0  0  0  0  0  0  0  0  0
    6.0547  -11.5889    5.6729 H   0  0  0  0  0  0  0  0  0  0  0  0
    7.2009   -6.7721    6.0020 H   0  0  0  0  0  0  0  0  0  0  0  0
    8.1056   -7.3281    4.5859 H   0  0  0  0  0  0  0  0  0  0  0  0
    7.0082   -4.7163    4.9032 H   0  0  0  0  0  0  0  0  0  0  0  0
    7.7492   -5.4485    3.4352 H   0  0  0  0  0  0  0  0  0  0  0  0
    6.9546   -4.2624    2.1497 H   0  0  0  0  0  0  0  0  0  0  0  0
    3.7986   -2.6670    2.7972 H   0  0  0  0  0  0  0  0  0  0  0  0
    4.8182   -0.5420    3.6110 H   0  0  0  0  0  0  0  0  0  0  0  0
    5.1058   -0.0342    1.9703 H   0  0  0  0  0  0  0  0  0  0  0  0
    2.7896   -0.1542    1.6280 H   0  0  0  0  0  0  0  0  0  0  0  0
    2.9567   -1.9634    0.5683 H   0  0  0  0  0  0  0  0  0  0  0  0
    4.5604   -0.4696   -0.0016 H   0  0  0  0  0  0  0  0  0  0  0  0
    3.4362   -4.2963    0.8044 H   0  0  0  0  0  0  0  0  0  0  0  0
    3.7327   -4.7869   -1.4127 H   0  0  0  0  0  0  0  0  0  0  0  0
    5.4879   -5.3036    0.2522 H   0  0  0  0  0  0  0  0  0  0  0  0
    6.3917   -2.6602   -0.2213 H   0  0  0  0  0  0  0  0  0  0  0  0
    3.3239  -10.3525    1.6674 H   0  0  0  0  0  0  0  0  0  0  0  0
    3.4305   -8.9876    0.5379 H   0  0  0  0  0  0  0  0  0  0  0  0
    1.8624   -9.8205    0.8008 H   0  0  0  0  0  0  0  0  0  0  0  0
    1.4573  -10.1019    5.1913 H   0  0  0  0  0  0  0  0  0  0  0  0
    0.3818  -10.1621    2.6159 H   0  0  0  0  0  0  0  0  0  0  0  0
   -0.5783  -10.1710    4.0491 H   0  0  0  0  0  0  0  0  0  0  0  0
   -0.9814   -6.8461    1.5290 H   0  0  0  0  0  0  0  0  0  0  0  0
   -1.2814   -8.5587    1.2282 H   0  0  0  0  0  0  0  0  0  0  0  0
    0.3572   -7.9077    1.1489 H   0  0  0  0  0  0  0  0  0  0  0  0
   -2.3271   -7.1011    3.6447 H   0  0  0  0  0  0  0  0  0  0  0  0
   -1.8678   -8.2823    4.8586 H   0  0  0  0  0  0  0  0  0  0  0  0
   -2.5784   -8.8037    3.3436 H   0  0  0  0  0  0  0  0  0  0  0  0
   -0.0445   -6.4113    4.3776 H   0  0  0  0  0  0  0  0  0  0  0  0
    1.3824   -5.7847    2.5290 H   0  0  0  0  0  0  0  0  0  0  0  0
    3.0714   -4.8416    3.7727 H   0  0  0  0  0  0  0  0  0  0  0  0
    3.2907   -4.4856    6.0627 H   0  0  0  0  0  0  0  0  0  0  0  0
    1.6607   -5.2734    6.2712 H   0  0  0  0  0  0  0  0  0  0  0  0
    2.5819   -7.2440    6.0773 H   0  0  0  0  0  0  0  0  0  0  0  0
    7.4864   -7.1580    2.0468 H   0  0  0  0  0  0  0  0  0  0  0  0
    6.2042   -6.9276    0.8774 H   0  0  0  0  0  0  0  0  0  0  0  0
    6.4613   -8.4818    1.5715 H   0  0  0  0  0  0  0  0  0  0  0  0
  1  2  1  0
  1 42  1  0
  1 43  1  0
  1 44  1  0
  2  3  1  0
  3  4  2  0
  5  3  1  6
  5 22  1  0
  5 40  1  0
  5  6  1  0
  6  7  1  0
  6 45  1  0
  6 46  1  0
  7  8  1  0
  7 47  1  0
  7 48  1  0
  8 40  1  0
  8  9  1  6
  8 21  1  0
  9 10  1  0
 10 19  1  0
 10 11  1  0
 10 49  1  6
 11 12  1  0
 12 13  1  0
 12 15  1  0
 12 50  1  1
 13 14  1  0
 13 51  1  0
 13 52  1  0
 14 53  1  0
 15 16  1  0
 15 17  1  0
 15 54  1  1
 16 55  1  0
 17 18  1  0
 17 19  1  0
 17 56  1  1
 18 57  1  0
 19 20  1  0
 19 58  1  1
 20 59  1  0
 22 21  1  1
 22 39  1  0
 22 23  1  0
 23 28  2  0
 23 24  1  0
 24 25  2  0
 24 40  1  0
 25 36  1  0
 25 26  1  0
 26 27  1  0
 26 28  1  0
 27 60  1  0
 27 61  1  0
 27 62  1  0
 28 29  1  0
 29 35  1  0
 29 30  1  0
 29 63  1  1
 30 31  1  0
 30 64  1  0
 30 65  1  0
 31 32  1  0
 31 33  1  0
 31 34  1  0
 32 66  1  0
 32 67  1  0
 32 68  1  0
 33 69  1  0
 33 70  1  0
 33 71  1  0
 34 35  1  0
 34 36  1  0
 34 72  1  1
 36 37  1  0
 36 73  1  6
 37 39  1  0
 37 38  1  0
 37 74  1  6
 38 39  1  0
 38 75  1  0
 38 76  1  0
 39 77  1  1
 40 41  1  6
 41 78  1  0
 41 79  1  0
 41 80  1  0
M  END
>  <i_m_ct_stereo_status>  (322) 
1

>  <s_m_source_file>  (322) 
/var/tmp/pbs.5083858.sched01/tmpj24v1vso/130xnf0ob2q.sdf

>  <i_m_source_file_index>  (322) 
2

>  <i_lp_mmshare_version>  (322) 
48012

>  <i_f3d_flags>  (322) 
0

>  <s_epik_input>  (322) 
W09IXVtDQEBIXTFbQ0BIXShbT0hdKVtDQEhdKFtPSF0pW0NASF0oW0NIMl1bT0hdKU9bQ0BIXTFPW0NAXShPMikoW0NIMl1bQ0gyXTMpW0NAQF0oW0NIM10pKFtDQEBdMyhDMjQ1KUMoPU8pT1tDSDNdKWM2YzRjN1tDQEBIXThbQ0gyXUMoW0NIM10pKFtDSDNdKVtDQEBIXShPOClbQ0hdKGM2bjdbQ0gzXSlbQ0BASF05W0NIXTVbQ0gyXTk=

>  <s_epik_cmdline>  (322) 
J2VwaWtfcHl0aG9uJywgJy1waHQnLCAnMi4wJywgJy1waCcsICc3LjAnLCAnLXRuJywgJzgnLCAnLW1hJywgJzIwMCcsICctaW1hZScsICc8aW5maWxlLm1hZT4nLCAnLW9tYWUnLCAnPG91dGZpbGUubWFlPic=

>  <r_lp_tautomer_probability>  (322) 
1

>  <r_epik_Ionization_Penalty>  (322) 
4.93662e-06

>  <r_epik_Ionization_Penalty_Charging>  (322) 
0

>  <r_epik_Ionization_Penalty_Neutral>  (322) 
4.93662e-06

>  <r_epik_State_Penalty>  (322) 
-0

>  <r_epik_Charging_Adjusted_Penalty>  (322) 
0

>  <i_epik_Tot_Q>  (322) 
0

>  <i_epik_Tot_abs_Q>  (322) 
0

>  <s_epik_Chemistry_Notes>  (322) 
This compound has an ester and may undergo hydrolysis at high or low pH. This compound contains an acetal/aminal-like group ( X-CH(R)-Y where X, Y are N, S, or O) that may be acid/base labile, releasing an aldehyde.

>  <s_lp_Force_Field>  (322) 
OPLS3e

>  <r_lp_Energy>  (322) 
319.809

>  <b_lp_Chiralities_Consistent>  (322) 
1

>  <s_lp_Variant>  (322) 
90:0-3

>  <s_i_glide_gridfile>  (322) 
pfpi4k_grid

>  <i_i_glide_lignum>  (322) 
2

>  <i_i_glide_rotatable_bonds>  (322) 
9

>  <r_i_docking_score>  (322) 
-2.56839

>  <r_i_glide_ligand_efficiency>  (322) 
-0.0626435

>  <r_i_glide_ligand_efficiency_sa>  (322) 
-0.216009

>  <r_i_glide_ligand_efficiency_ln>  (322) 
-0.544892

>  <r_i_glide_gscore>  (322) 
-2.56839

>  <r_i_glide_lipo>  (322) 
-0.256735

>  <r_i_glide_hbond>  (322) 
0

>  <r_i_glide_metal>  (322) 
-0

>  <r_i_glide_rewards>  (322) 
-0.558286

>  <r_i_glide_evdw>  (322) 
-26.3296

>  <r_i_glide_ecoul>  (322) 
-3.93129

>  <r_i_glide_erotb>  (322) 
0.160243

>  <r_i_glide_esite>  (322) 
-0.00743545

>  <r_i_glide_emodel>  (322) 
-36.7037

>  <r_i_glide_energy>  (322) 
-30.2609

>  <r_i_glide_einternal>  (322) 
6.79218

>  <r_i_glide_intrahb_reward>  (322) 
-0.5

>  <i_i_glide_confnum>  (322) 
1

>  <i_i_glide_posenum>  (322) 
13

>  <r_i_glide_eff_state_penalty>  (322) 
0

>  <ligand_id>  (322) 
90

>  <original_smiles>  (322) 
COC(=O)C12CCC3(OC4OC(CO)C(O)C(O)C4O)OC14c1c(c5n(C)c1C1CC(C)(C)C(O1)C5C1CC14)C32C

>  <smiles>  (322) 
[H]OC([H])([H])C1([H])OC([H])(OC23OC45c6c(c7n(C([H])([H])[H])c6C6([H])OC([H])(C7([H])C7([H])C([H])([H])C47[H])C(C([H])([H])[H])(C([H])([H])[H])C6([H])[H])C2(C([H])([H])[H])C5(C(=O)OC([H])([H])[H])C([H])([H])C3([H])[H])C([H])(O[H])C([H])(O[H])C1([H])O[H]

$$$$
91:0:0
     RDKit          3D

 65 73  0  0  1  0  0  0  0  0999 V2000
   -0.7194   -9.7639    2.6818 C   0  0  0  0  0  0  0  0  0  0  0  0
    0.1884   -8.5250    2.7029 C   0  0  0  0  0  0  0  0  0  0  0  0
   -0.5650   -7.4351    1.9368 C   0  0  0  0  0  0  0  0  0  0  0  0
    0.7035   -8.2455    4.1209 C   0  0  2  0  0  0  0  0  0  0  0  0
    1.6312   -7.0185    4.0377 C   0  0  0  0  0  0  0  0  0  0  0  0
    2.6205   -7.6902    3.0754 C   0  0  1  0  0  0  0  0  0  0  0  0
    3.5699   -6.8511    2.1744 C   0  0  2  0  0  0  0  0  0  0  0  0
    5.0919   -7.0520    2.3918 C   0  0  1  0  0  0  0  0  0  0  0  0
    5.6204   -6.0400    3.4325 C   0  0  0  0  0  0  0  0  0  0  0  0
    5.3522   -4.5870    2.9891 C   0  0  0  0  0  0  0  0  0  0  0  0
    3.8431   -4.2909    2.7917 C   0  0  1  0  0  0  0  0  0  0  0  0
    3.1725   -4.2081    4.1872 C   0  0  0  0  0  0  0  0  0  0  0  0
    3.6121   -2.8951    2.0978 C   0  0  1  0  0  0  0  0  0  0  0  0
    4.1151   -1.6749    2.8304 C   0  0  0  0  0  0  0  0  0  0  0  0
    3.3876   -0.8171    3.7054 C   0  0  0  0  0  0  0  0  0  0  0  0
    4.2504    0.1791    4.0944 C   0  0  0  0  0  0  0  0  0  0  0  0
    5.4665    0.0041    3.5167 O   0  0  0  0  0  0  0  0  0  0  0  0
    5.3747   -1.1198    2.7565 C   0  0  0  0  0  0  0  0  0  0  0  0
    4.0627   -2.8708    0.7559 O   0  0  0  0  0  0  0  0  0  0  0  0
    3.7803   -3.8338   -0.1404 C   0  0  0  0  0  0  0  0  0  0  0  0
    4.1106   -3.7506   -1.3164 O   0  0  0  0  0  0  0  0  0  0  0  0
    3.1218   -5.0935    0.3846 C   0  0  2  0  0  0  0  0  0  0  0  0
    1.9751   -5.0308    1.2908 O   0  0  0  0  0  0  0  0  0  0  0  0
    3.2468   -5.3774    1.8747 C   0  0  1  0  0  0  0  0  0  0  0  0
    5.4786   -8.5473    2.6272 C   0  0  0  0  0  0  0  0  0  0  0  0
    5.1233   -9.4242    1.4045 C   0  0  0  0  0  0  0  0  0  0  0  0
    7.0226   -8.6953    2.7834 C   0  0  0  0  0  0  0  0  0  0  0  0
    4.7079   -9.1448    3.8261 C   0  0  1  0  0  0  0  0  0  0  0  0
    5.3415   -8.7303    5.0353 O   0  0  0  0  0  0  0  0  0  0  0  0
    3.2620   -8.6705    4.0391 C   0  0  1  0  0  0  0  0  0  0  0  0
    2.6977   -9.5755    4.9399 O   0  0  0  0  0  0  0  0  0  0  0  0
    1.7701   -9.3224    3.9181 C   0  0  1  0  0  0  0  0  0  0  0  0
    1.7036   -8.7980    2.5151 C   0  0  1  0  0  0  0  0  0  0  0  0
   -1.6965   -9.5864    3.1392 H   0  0  0  0  0  0  0  0  0  0  0  0
   -0.2743  -10.6151    3.2148 H   0  0  0  0  0  0  0  0  0  0  0  0
   -0.8956  -10.1385    1.6676 H   0  0  0  0  0  0  0  0  0  0  0  0
    0.0201   -6.5399    1.7554 H   0  0  0  0  0  0  0  0  0  0  0  0
   -1.4777   -7.1383    2.4576 H   0  0  0  0  0  0  0  0  0  0  0  0
   -0.8767   -7.8053    0.9622 H   0  0  0  0  0  0  0  0  0  0  0  0
    0.0099   -8.3593    4.9644 H   0  0  0  0  0  0  0  0  0  0  0  0
    1.1426   -6.1490    3.6071 H   0  0  0  0  0  0  0  0  0  0  0  0
    2.0760   -6.7553    4.9937 H   0  0  0  0  0  0  0  0  0  0  0  0
    3.4446   -7.3305    1.1967 H   0  0  0  0  0  0  0  0  0  0  0  0
    5.5892   -6.7730    1.4624 H   0  0  0  0  0  0  0  0  0  0  0  0
    5.1696   -6.2253    4.4092 H   0  0  0  0  0  0  0  0  0  0  0  0
    6.6943   -6.1435    3.5807 H   0  0  0  0  0  0  0  0  0  0  0  0
    5.7951   -3.8897    3.7020 H   0  0  0  0  0  0  0  0  0  0  0  0
    5.8739   -4.4311    2.0395 H   0  0  0  0  0  0  0  0  0  0  0  0
    2.0954   -4.0460    4.1136 H   0  0  0  0  0  0  0  0  0  0  0  0
    3.5824   -3.3793    4.7664 H   0  0  0  0  0  0  0  0  0  0  0  0
    3.3617   -5.0823    4.7999 H   0  0  0  0  0  0  0  0  0  0  0  0
    2.5291   -2.7404    2.0532 H   0  0  0  0  0  0  0  0  0  0  0  0
    2.3537   -0.8924    4.0041 H   0  0  0  0  0  0  0  0  0  0  0  0
    4.1550    1.0444    4.7196 H   0  0  0  0  0  0  0  0  0  0  0  0
    6.2616   -1.3674    2.2084 H   0  0  0  0  0  0  0  0  0  0  0  0
    3.0686   -5.9159   -0.3137 H   0  0  0  0  0  0  0  0  0  0  0  0
    5.5421  -10.4244    1.5139 H   0  0  0  0  0  0  0  0  0  0  0  0
    5.4847   -8.9986    0.4727 H   0  0  0  0  0  0  0  0  0  0  0  0
    4.0528   -9.5743    1.3128 H   0  0  0  0  0  0  0  0  0  0  0  0
    7.3153   -9.7402    2.8752 H   0  0  0  0  0  0  0  0  0  0  0  0
    7.4182   -8.1909    3.6666 H   0  0  0  0  0  0  0  0  0  0  0  0
    7.5392   -8.2803    1.9191 H   0  0  0  0  0  0  0  0  0  0  0  0
    4.7478  -10.2418    3.7976 H   0  0  0  0  0  0  0  0  0  0  0  0
    4.9558   -9.2374    5.7266 H   0  0  0  0  0  0  0  0  0  0  0  0
    2.0415   -9.4109    1.6606 H   0  0  0  0  0  0  0  0  0  0  0  0
  1  2  1  0
  1 34  1  0
  1 35  1  0
  1 36  1  0
  2 33  1  0
  2  3  1  0
  2  4  1  0
  3 37  1  0
  3 38  1  0
  3 39  1  0
  4 32  1  0
  4  5  1  0
  4 40  1  1
  6  5  1  1
  5 41  1  0
  5 42  1  0
  6 30  1  0
  6 33  1  0
  6  7  1  0
  7 24  1  0
  7  8  1  0
  7 43  1  6
  8  9  1  0
  8 25  1  0
  8 44  1  6
  9 10  1  0
  9 45  1  0
  9 46  1  0
 10 11  1  0
 10 47  1  0
 10 48  1  0
 11 24  1  0
 11 12  1  1
 11 13  1  0
 12 49  1  0
 12 50  1  0
 12 51  1  0
 13 14  1  0
 13 19  1  0
 13 52  1  6
 14 18  2  0
 14 15  1  0
 15 16  2  0
 15 53  1  0
 16 17  1  0
 16 54  1  0
 17 18  1  0
 18 55  1  0
 19 20  1  0
 20 21  2  0
 20 22  1  0
 22 24  1  0
 22 23  1  0
 22 56  1  6
 24 23  1  1
 25 26  1  0
 25 27  1  0
 25 28  1  0
 26 57  1  0
 26 58  1  0
 26 59  1  0
 27 60  1  0
 27 61  1  0
 27 62  1  0
 28 29  1  0
 28 30  1  0
 28 63  1  6
 29 64  1  0
 30 32  1  0
 30 31  1  1
 32 31  1  6
 32 33  1  0
 33 65  1  6
M  END
>  <i_m_ct_stereo_status>  (323) 
1

>  <s_m_source_file>  (323) 
/var/tmp/pbs.5083858.sched01/tmpj24v1vso/130xnf0ob2q.sdf

>  <i_m_source_file_index>  (323) 
3

>  <i_lp_mmshare_version>  (323) 
48012

>  <i_f3d_flags>  (323) 
0

>  <s_epik_input>  (323) 
W0NIM11DKFtDSDNdKShbQ0BASF0xMilbQ0BIXShbQ0gyXTMpW0NAXTIoTzQpW0NAXTQoW0NAQF0xMzUpW0NASF0oW09IXSlDKFtDSDNdKShbQ0gzXSlbQ0BIXTZbQ0BASF01W0NAQF03OFtDQEBdKFtDSDNdKShbQ0gyXVtDSDJdNilbQ0BIXShPQyg9TylbQ0BASF03TzgpYzlbY0hdW2NIXW9bY0hdOQ==

>  <s_epik_cmdline>  (323) 
J2VwaWtfcHl0aG9uJywgJy1waHQnLCAnMi4wJywgJy1waCcsICc3LjAnLCAnLXRuJywgJzgnLCAnLW1hJywgJzIwMCcsICctaW1hZScsICc8aW5maWxlLm1hZT4nLCAnLW9tYWUnLCAnPG91dGZpbGUubWFlPic=

>  <r_lp_tautomer_probability>  (323) 
1

>  <r_epik_Ionization_Penalty>  (323) 
1.78595e-07

>  <r_epik_Ionization_Penalty_Charging>  (323) 
0

>  <r_epik_Ionization_Penalty_Neutral>  (323) 
1.78595e-07

>  <r_epik_State_Penalty>  (323) 
-0

>  <r_epik_Charging_Adjusted_Penalty>  (323) 
0

>  <i_epik_Tot_Q>  (323) 
0

>  <i_epik_Tot_abs_Q>  (323) 
0

>  <s_epik_Chemistry_Notes>  (323) 
This compound has an ester and may undergo hydrolysis at high or low pH.

>  <s_lp_Force_Field>  (323) 
OPLS3e

>  <r_lp_Energy>  (323) 
138.068

>  <b_lp_Chiralities_Consistent>  (323) 
1

>  <s_lp_Variant>  (323) 
91:0-1

>  <s_i_glide_gridfile>  (323) 
pfpi4k_grid

>  <i_i_glide_lignum>  (323) 
3

>  <i_i_glide_rotatable_bonds>  (323) 
2

>  <r_i_docking_score>  (323) 
-1.76619

>  <r_i_glide_ligand_efficiency>  (323) 
-0.0535209

>  <r_i_glide_ligand_efficiency_sa>  (323) 
-0.17167

>  <r_i_glide_ligand_efficiency_ln>  (323) 
-0.392791

>  <r_i_glide_gscore>  (323) 
-1.76619

>  <r_i_glide_lipo>  (323) 
-0.229949

>  <r_i_glide_hbond>  (323) 
-0.0462599

>  <r_i_glide_metal>  (323) 
-0

>  <r_i_glide_rewards>  (323) 
-0.323595

>  <r_i_glide_evdw>  (323) 
-23.3349

>  <r_i_glide_ecoul>  (323) 
-0.624205

>  <r_i_glide_erotb>  (323) 
0.097982

>  <r_i_glide_esite>  (323) 
-0.00398979

>  <r_i_glide_emodel>  (323) 
-24.0836

>  <r_i_glide_energy>  (323) 
-23.9591

>  <r_i_glide_einternal>  (323) 
0.363092

>  <r_i_glide_intrahb_reward>  (323) 
-0

>  <i_i_glide_confnum>  (323) 
3

>  <i_i_glide_posenum>  (323) 
31

>  <r_i_glide_eff_state_penalty>  (323) 
0

>  <ligand_id>  (323) 
91

>  <original_smiles>  (323) 
CC1(C)C2CC34C5C(CCC6(C)C(c7ccoc7)OC(=O)C7OC756)C(C)(C)C(O)C35OC25C14

>  <smiles>  (323) 
[H]OC1([H])C23OC24C2([H])C([H])([H])C3(C3([H])C([H])(C([H])([H])C([H])([H])C5(C([H])([H])[H])C([H])(c6c([H])oc([H])c6[H])OC(=O)C6([H])OC635)C1(C([H])([H])[H])C([H])([H])[H])C4([H])C2(C([H])([H])[H])C([H])([H])[H]

$$$$
91:0:1
     RDKit          3D

 65 73  0  0  1  0  0  0  0  0999 V2000
   -0.7923   -9.7484    2.6711 C   0  0  0  0  0  0  0  0  0  0  0  0
    0.1273   -8.5072    2.7208 C   0  0  0  0  0  0  0  0  0  0  0  0
   -0.6094   -7.4010    1.9599 C   0  0  0  0  0  0  0  0  0  0  0  0
    0.6560   -8.2375    4.1341 C   0  0  2  0  0  0  0  0  0  0  0  0
    1.5925   -7.0214    4.0556 C   0  0  0  0  0  0  0  0  0  0  0  0
    2.5686   -7.7043    3.0921 C   0  0  1  0  0  0  0  0  0  0  0  0
    3.5325   -6.8665    2.1920 C   0  0  2  0  0  0  0  0  0  0  0  0
    5.0519   -7.0816    2.4104 C   0  0  1  0  0  0  0  0  0  0  0  0
    5.5928   -6.0828    3.4604 C   0  0  0  0  0  0  0  0  0  0  0  0
    5.3371   -4.6221    3.0258 C   0  0  0  0  0  0  0  0  0  0  0  0
    3.8325   -4.3083    2.8389 C   0  0  1  0  0  0  0  0  0  0  0  0
    3.1655   -4.2334    4.2359 C   0  0  0  0  0  0  0  0  0  0  0  0
    3.6030   -2.9083    2.1546 C   0  0  1  0  0  0  0  0  0  0  0  0
    4.0967   -1.6886    2.9074 C   0  0  0  0  0  0  0  0  0  0  0  0
    5.4159   -1.1288    2.8848 C   0  0  0  0  0  0  0  0  0  0  0  0
    5.3792   -0.0256    3.6914 C   0  0  0  0  0  0  0  0  0  0  0  0
    4.1365    0.1638    4.2012 O   0  0  0  0  0  0  0  0  0  0  0  0
    3.3796   -0.8600    3.7145 C   0  0  0  0  0  0  0  0  0  0  0  0
    4.0639   -2.8736    0.8165 O   0  0  0  0  0  0  0  0  0  0  0  0
    3.7740   -3.8219   -0.0895 C   0  0  0  0  0  0  0  0  0  0  0  0
    4.1110   -3.7227   -1.2605 O   0  0  0  0  0  0  0  0  0  0  0  0
    3.0997   -5.0798    0.4227 C   0  0  2  0  0  0  0  0  0  0  0  0
    1.9632   -5.0199    1.3218 O   0  0  0  0  0  0  0  0  0  0  0  0
    3.2212   -5.3824    1.9030 C   0  0  1  0  0  0  0  0  0  0  0  0
    5.4299   -8.5810    2.6292 C   0  0  0  0  0  0  0  0  0  0  0  0
    5.0560   -9.4429    1.4035 C   0  0  0  0  0  0  0  0  0  0  0  0
    6.9696   -8.7463    2.7848 C   0  0  0  0  0  0  0  0  0  0  0  0
    4.6573   -9.1801    3.8308 C   0  0  1  0  0  0  0  0  0  0  0  0
    5.2931   -8.7858    5.0408 O   0  0  0  0  0  0  0  0  0  0  0  0
    3.2164   -8.6992    4.0438 C   0  0  1  0  0  0  0  0  0  0  0  0
    2.6345   -9.6233    4.9201 O   0  0  0  0  0  0  0  0  0  0  0  0
    1.7191   -9.3159    3.9184 C   0  0  1  0  0  0  0  0  0  0  0  0
    1.6425   -8.7869    2.5060 C   0  0  1  0  0  0  0  0  0  0  0  0
   -1.7612   -9.5507    3.1565 H   0  0  0  0  0  0  0  0  0  0  0  0
   -0.3433  -10.5918    3.2189 H   0  0  0  0  0  0  0  0  0  0  0  0
   -0.9651  -10.0976    1.6795 H   0  0  0  0  0  0  0  0  0  0  0  0
   -0.0172   -6.5067    1.7838 H   0  0  0  0  0  0  0  0  0  0  0  0
   -1.5206   -7.0998    2.4822 H   0  0  0  0  0  0  0  0  0  0  0  0
   -0.9263   -7.7618    0.9819 H   0  0  0  0  0  0  0  0  0  0  0  0
   -0.0279   -8.3510    4.9771 H   0  0  0  0  0  0  0  0  0  0  0  0
    1.1158   -6.1438    3.6318 H   0  0  0  0  0  0  0  0  0  0  0  0
    2.0407   -6.7671    5.0148 H   0  0  0  0  0  0  0  0  0  0  0  0
    3.4008   -7.3328    1.2103 H   0  0  0  0  0  0  0  0  0  0  0  0
    5.5545   -6.7989    1.4798 H   0  0  0  0  0  0  0  0  0  0  0  0
    5.1417   -6.2743    4.4353 H   0  0  0  0  0  0  0  0  0  0  0  0
    6.6668   -6.1983    3.6037 H   0  0  0  0  0  0  0  0  0  0  0  0
    5.7909   -3.9373    3.7433 H   0  0  0  0  0  0  0  0  0  0  0  0
    5.8586   -4.4670    2.0775 H   0  0  0  0  0  0  0  0  0  0  0  0
    2.0908   -4.0600    4.1665 H   0  0  0  0  0  0  0  0  0  0  0  0
    3.5837   -3.4143    4.8193 H   0  0  0  0  0  0  0  0  0  0  0  0
    3.3486   -5.1144    4.8414 H   0  0  0  0  0  0  0  0  0  0  0  0
    2.5198   -2.7563    2.1022 H   0  0  0  0  0  0  0  0  0  0  0  0
    6.2715   -1.4794    2.3368 H   0  0  0  0  0  0  0  0  0  0  0  0
    6.1114    0.7127    3.9753 H   0  0  0  0  0  0  0  0  0  0  0  0
    2.3415   -0.8234    4.0287 H   0  0  0  0  0  0  0  0  0  0  0  0
    3.0337   -5.8897   -0.3028 H   0  0  0  0  0  0  0  0  0  0  0  0
    5.4646  -10.4508    1.5005 H   0  0  0  0  0  0  0  0  0  0  0  0
    5.4245   -9.0099    0.4796 H   0  0  0  0  0  0  0  0  0  0  0  0
    3.9849   -9.5790    1.3082 H   0  0  0  0  0  0  0  0  0  0  0  0
    7.2529   -9.7937    2.8651 H   0  0  0  0  0  0  0  0  0  0  0  0
    7.3719   -8.2528    3.6690 H   0  0  0  0  0  0  0  0  0  0  0  0
    7.4886   -8.3305    1.9224 H   0  0  0  0  0  0  0  0  0  0  0  0
    4.6842  -10.2758    3.7919 H   0  0  0  0  0  0  0  0  0  0  0  0
    4.8933   -9.2888    5.7337 H   0  0  0  0  0  0  0  0  0  0  0  0
    1.9739   -9.3916    1.6500 H   0  0  0  0  0  0  0  0  0  0  0  0
  1  2  1  0
  1 34  1  0
  1 35  1  0
  1 36  1  0
  2 33  1  0
  2  3  1  0
  2  4  1  0
  3 37  1  0
  3 38  1  0
  3 39  1  0
  4 32  1  0
  4  5  1  0
  4 40  1  1
  6  5  1  1
  5 41  1  0
  5 42  1  0
  6 30  1  0
  6 33  1  0
  6  7  1  0
  7 24  1  0
  7  8  1  0
  7 43  1  6
  8  9  1  0
  8 25  1  0
  8 44  1  6
  9 10  1  0
  9 45  1  0
  9 46  1  0
 10 11  1  0
 10 47  1  0
 10 48  1  0
 11 24  1  0
 11 12  1  1
 11 13  1  0
 12 49  1  0
 12 50  1  0
 12 51  1  0
 13 14  1  0
 13 19  1  0
 13 52  1  6
 14 18  2  0
 14 15  1  0
 15 16  2  0
 15 53  1  0
 16 17  1  0
 16 54  1  0
 17 18  1  0
 18 55  1  0
 19 20  1  0
 20 21  2  0
 20 22  1  0
 22 24  1  0
 22 23  1  0
 22 56  1  6
 24 23  1  1
 25 26  1  0
 25 27  1  0
 25 28  1  0
 26 57  1  0
 26 58  1  0
 26 59  1  0
 27 60  1  0
 27 61  1  0
 27 62  1  0
 28 29  1  0
 28 30  1  0
 28 63  1  6
 29 64  1  0
 30 32  1  0
 30 31  1  1
 32 31  1  6
 32 33  1  0
 33 65  1  6
M  END
>  <i_m_ct_stereo_status>  (324) 
1

>  <s_m_source_file>  (324) 
/var/tmp/pbs.5083858.sched01/tmpj24v1vso/130xnf0ob2q.sdf

>  <i_m_source_file_index>  (324) 
3

>  <i_lp_mmshare_version>  (324) 
48012

>  <i_f3d_flags>  (324) 
0

>  <s_epik_input>  (324) 
W0NIM11DKFtDSDNdKShbQ0BASF0xMilbQ0BIXShbQ0gyXTMpW0NAXTIoTzQpW0NAXTQoW0NAQF0xMzUpW0NASF0oW09IXSlDKFtDSDNdKShbQ0gzXSlbQ0BIXTZbQ0BASF01W0NAQF03OFtDQEBdKFtDSDNdKShbQ0gyXVtDSDJdNilbQ0BIXShPQyg9TylbQ0BASF03TzgpYzlbY0hdW2NIXW9bY0hdOQ==

>  <s_epik_cmdline>  (324) 
J2VwaWtfcHl0aG9uJywgJy1waHQnLCAnMi4wJywgJy1waCcsICc3LjAnLCAnLXRuJywgJzgnLCAnLW1hJywgJzIwMCcsICctaW1hZScsICc8aW5maWxlLm1hZT4nLCAnLW9tYWUnLCAnPG91dGZpbGUubWFlPic=

>  <r_lp_tautomer_probability>  (324) 
1

>  <r_epik_Ionization_Penalty>  (324) 
1.78595e-07

>  <r_epik_Ionization_Penalty_Charging>  (324) 
0

>  <r_epik_Ionization_Penalty_Neutral>  (324) 
1.78595e-07

>  <r_epik_State_Penalty>  (324) 
-0

>  <r_epik_Charging_Adjusted_Penalty>  (324) 
0

>  <i_epik_Tot_Q>  (324) 
0

>  <i_epik_Tot_abs_Q>  (324) 
0

>  <s_epik_Chemistry_Notes>  (324) 
This compound has an ester and may undergo hydrolysis at high or low pH.

>  <s_lp_Force_Field>  (324) 
OPLS3e

>  <r_lp_Energy>  (324) 
138.068

>  <b_lp_Chiralities_Consistent>  (324) 
1

>  <s_lp_Variant>  (324) 
91:0-1

>  <s_i_glide_gridfile>  (324) 
pfpi4k_grid

>  <i_i_glide_lignum>  (324) 
3

>  <i_i_glide_rotatable_bonds>  (324) 
2

>  <r_i_docking_score>  (324) 
-1.75598

>  <r_i_glide_ligand_efficiency>  (324) 
-0.0532115

>  <r_i_glide_ligand_efficiency_sa>  (324) 
-0.170678

>  <r_i_glide_ligand_efficiency_ln>  (324) 
-0.390521

>  <r_i_glide_gscore>  (324) 
-1.75598

>  <r_i_glide_lipo>  (324) 
-0.314255

>  <r_i_glide_hbond>  (324) 
-0.0449651

>  <r_i_glide_metal>  (324) 
-0

>  <r_i_glide_rewards>  (324) 
-0.323595

>  <r_i_glide_evdw>  (324) 
-23.1987

>  <r_i_glide_ecoul>  (324) 
-0.217136

>  <r_i_glide_erotb>  (324) 
0.097982

>  <r_i_glide_esite>  (324) 
-0.00326167

>  <r_i_glide_emodel>  (324) 
-21.9084

>  <r_i_glide_energy>  (324) 
-23.4158

>  <r_i_glide_einternal>  (324) 
0.332102

>  <r_i_glide_intrahb_reward>  (324) 
-0

>  <i_i_glide_confnum>  (324) 
4

>  <i_i_glide_posenum>  (324) 
34

>  <r_i_glide_eff_state_penalty>  (324) 
0

>  <ligand_id>  (324) 
91

>  <original_smiles>  (324) 
CC1(C)C2CC34C5C(CCC6(C)C(c7ccoc7)OC(=O)C7OC756)C(C)(C)C(O)C35OC25C14

>  <smiles>  (324) 
[H]OC1([H])C23OC24C2([H])C([H])([H])C3(C3([H])C([H])(C([H])([H])C([H])([H])C5(C([H])([H])[H])C([H])(c6c([H])oc([H])c6[H])OC(=O)C6([H])OC635)C1(C([H])([H])[H])C([H])([H])[H])C4([H])C2(C([H])([H])[H])C([H])([H])[H]

$$$$
91:0:2
     RDKit          3D

 65 73  0  0  1  0  0  0  0  0999 V2000
   -0.7108   -9.7693    2.6842 C   0  0  0  0  0  0  0  0  0  0  0  0
    0.1978   -8.5336    2.7018 C   0  0  0  0  0  0  0  0  0  0  0  0
   -0.5568   -7.4416    1.9309 C   0  0  0  0  0  0  0  0  0  0  0  0
    0.7065   -8.2490    4.1202 C   0  0  2  0  0  0  0  0  0  0  0  0
    1.6341   -7.0199    4.0380 C   0  0  0  0  0  0  0  0  0  0  0  0
    2.6269   -7.6915    3.0823 C   0  0  1  0  0  0  0  0  0  0  0  0
    3.5764   -6.8518    2.1782 C   0  0  2  0  0  0  0  0  0  0  0  0
    5.1006   -7.0508    2.4021 C   0  0  1  0  0  0  0  0  0  0  0  0
    5.6212   -6.0346    3.4421 C   0  0  0  0  0  0  0  0  0  0  0  0
    5.3541   -4.5840    2.9951 C   0  0  0  0  0  0  0  0  0  0  0  0
    3.8436   -4.2890    2.7925 C   0  0  1  0  0  0  0  0  0  0  0  0
    3.1688   -4.2059    4.1866 C   0  0  0  0  0  0  0  0  0  0  0  0
    3.6137   -2.8971    2.0961 C   0  0  1  0  0  0  0  0  0  0  0  0
    4.1132   -1.6729    2.8271 C   0  0  0  0  0  0  0  0  0  0  0  0
    3.3795   -0.8179    3.6990 C   0  0  0  0  0  0  0  0  0  0  0  0
    4.2418    0.1823    4.0883 C   0  0  0  0  0  0  0  0  0  0  0  0
    5.4577    0.0075    3.5132 O   0  0  0  0  0  0  0  0  0  0  0  0
    5.3699   -1.1171    2.7563 C   0  0  0  0  0  0  0  0  0  0  0  0
    4.0703   -2.8735    0.7531 O   0  0  0  0  0  0  0  0  0  0  0  0
    3.7930   -3.8398   -0.1427 C   0  0  0  0  0  0  0  0  0  0  0  0
    4.1228   -3.7610   -1.3165 O   0  0  0  0  0  0  0  0  0  0  0  0
    3.1307   -5.0977    0.3885 C   0  0  2  0  0  0  0  0  0  0  0  0
    1.9826   -5.0242    1.2890 O   0  0  0  0  0  0  0  0  0  0  0  0
    3.2523   -5.3761    1.8789 C   0  0  1  0  0  0  0  0  0  0  0  0
    5.4891   -8.5443    2.6411 C   0  0  0  0  0  0  0  0  0  0  0  0
    5.1368   -9.4256    1.4232 C   0  0  0  0  0  0  0  0  0  0  0  0
    7.0339   -8.6903    2.8022 C   0  0  0  0  0  0  0  0  0  0  0  0
    4.7129   -9.1320    3.8441 C   0  0  1  0  0  0  0  0  0  0  0  0
    5.3674   -8.6983    5.0314 O   0  0  0  0  0  0  0  0  0  0  0  0
    3.2682   -8.6642    4.0538 C   0  0  1  0  0  0  0  0  0  0  0  0
    2.7026   -9.5740    4.9476 O   0  0  0  0  0  0  0  0  0  0  0  0
    1.7756   -9.3216    3.9238 C   0  0  1  0  0  0  0  0  0  0  0  0
    1.7148   -8.7994    2.5208 C   0  0  1  0  0  0  0  0  0  0  0  0
   -1.6899   -9.5896    3.1323 H   0  0  0  0  0  0  0  0  0  0  0  0
   -0.2658  -10.6188    3.2155 H   0  0  0  0  0  0  0  0  0  0  0  0
   -0.8820  -10.1464    1.6794 H   0  0  0  0  0  0  0  0  0  0  0  0
    0.0268   -6.5456    1.7483 H   0  0  0  0  0  0  0  0  0  0  0  0
   -1.4718   -7.1466    2.4481 H   0  0  0  0  0  0  0  0  0  0  0  0
   -0.8659   -7.8153    0.9566 H   0  0  0  0  0  0  0  0  0  0  0  0
    0.0078   -8.3624    4.9600 H   0  0  0  0  0  0  0  0  0  0  0  0
    1.1454   -6.1533    3.6057 H   0  0  0  0  0  0  0  0  0  0  0  0
    2.0755   -6.7557    4.9977 H   0  0  0  0  0  0  0  0  0  0  0  0
    3.4548   -7.3319    1.2048 H   0  0  0  0  0  0  0  0  0  0  0  0
    5.5983   -6.7720    1.4734 H   0  0  0  0  0  0  0  0  0  0  0  0
    5.1670   -6.2158    4.4167 H   0  0  0  0  0  0  0  0  0  0  0  0
    6.6966   -6.1361    3.5957 H   0  0  0  0  0  0  0  0  0  0  0  0
    5.7919   -3.8840    3.7101 H   0  0  0  0  0  0  0  0  0  0  0  0
    5.8775   -4.4288    2.0479 H   0  0  0  0  0  0  0  0  0  0  0  0
    2.0907   -4.0460    4.1077 H   0  0  0  0  0  0  0  0  0  0  0  0
    3.5750   -3.3758    4.7651 H   0  0  0  0  0  0  0  0  0  0  0  0
    3.3561   -5.0796    4.8014 H   0  0  0  0  0  0  0  0  0  0  0  0
    2.5314   -2.7427    2.0483 H   0  0  0  0  0  0  0  0  0  0  0  0
    2.3459   -0.8927    3.9948 H   0  0  0  0  0  0  0  0  0  0  0  0
    4.1413    1.0485    4.7107 H   0  0  0  0  0  0  0  0  0  0  0  0
    6.2590   -1.3637    2.2088 H   0  0  0  0  0  0  0  0  0  0  0  0
    3.0800   -5.9226   -0.3078 H   0  0  0  0  0  0  0  0  0  0  0  0
    5.5563  -10.4268    1.5341 H   0  0  0  0  0  0  0  0  0  0  0  0
    5.5005   -9.0030    0.4890 H   0  0  0  0  0  0  0  0  0  0  0  0
    4.0672   -9.5769    1.3273 H   0  0  0  0  0  0  0  0  0  0  0  0
    7.3272   -9.7362    2.8955 H   0  0  0  0  0  0  0  0  0  0  0  0
    7.4321   -8.1787    3.6789 H   0  0  0  0  0  0  0  0  0  0  0  0
    7.5502   -8.2777    1.9350 H   0  0  0  0  0  0  0  0  0  0  0  0
    4.7621  -10.2282    3.8301 H   0  0  0  0  0  0  0  0  0  0  0  0
    6.1804   -9.1620    5.0931 H   0  0  0  0  0  0  0  0  0  0  0  0
    2.0564   -9.4205    1.6690 H   0  0  0  0  0  0  0  0  0  0  0  0
  1  2  1  0
  1 34  1  0
  1 35  1  0
  1 36  1  0
  2 33  1  0
  2  3  1  0
  2  4  1  0
  3 37  1  0
  3 38  1  0
  3 39  1  0
  4 32  1  0
  4  5  1  0
  4 40  1  1
  6  5  1  1
  5 41  1  0
  5 42  1  0
  6 30  1  0
  6 33  1  0
  6  7  1  0
  7 24  1  0
  7  8  1  0
  7 43  1  6
  8  9  1  0
  8 25  1  0
  8 44  1  6
  9 10  1  0
  9 45  1  0
  9 46  1  0
 10 11  1  0
 10 47  1  0
 10 48  1  0
 11 24  1  0
 11 12  1  1
 11 13  1  0
 12 49  1  0
 12 50  1  0
 12 51  1  0
 13 14  1  0
 13 19  1  0
 13 52  1  6
 14 18  2  0
 14 15  1  0
 15 16  2  0
 15 53  1  0
 16 17  1  0
 16 54  1  0
 17 18  1  0
 18 55  1  0
 19 20  1  0
 20 21  2  0
 20 22  1  0
 22 24  1  0
 22 23  1  0
 22 56  1  6
 24 23  1  1
 25 26  1  0
 25 27  1  0
 25 28  1  0
 26 57  1  0
 26 58  1  0
 26 59  1  0
 27 60  1  0
 27 61  1  0
 27 62  1  0
 28 29  1  0
 28 30  1  0
 28 63  1  6
 29 64  1  0
 30 32  1  0
 30 31  1  1
 32 31  1  6
 32 33  1  0
 33 65  1  6
M  END
>  <i_m_ct_stereo_status>  (325) 
1

>  <s_m_source_file>  (325) 
/var/tmp/pbs.5083858.sched01/tmpj24v1vso/130xnf0ob2q.sdf

>  <i_m_source_file_index>  (325) 
3

>  <i_lp_mmshare_version>  (325) 
48012

>  <i_f3d_flags>  (325) 
0

>  <s_epik_input>  (325) 
W0NIM11DKFtDSDNdKShbQ0BASF0xMilbQ0BIXShbQ0gyXTMpW0NAXTIoTzQpW0NAXTQoW0NAQF0xMzUpW0NASF0oW09IXSlDKFtDSDNdKShbQ0gzXSlbQ0BIXTZbQ0BASF01W0NAQF03OFtDQEBdKFtDSDNdKShbQ0gyXVtDSDJdNilbQ0BIXShPQyg9TylbQ0BASF03TzgpYzlbY0hdW2NIXW9bY0hdOQ==

>  <s_epik_cmdline>  (325) 
J2VwaWtfcHl0aG9uJywgJy1waHQnLCAnMi4wJywgJy1waCcsICc3LjAnLCAnLXRuJywgJzgnLCAnLW1hJywgJzIwMCcsICctaW1hZScsICc8aW5maWxlLm1hZT4nLCAnLW9tYWUnLCAnPG91dGZpbGUubWFlPic=

>  <r_lp_tautomer_probability>  (325) 
1

>  <r_epik_Ionization_Penalty>  (325) 
1.78595e-07

>  <r_epik_Ionization_Penalty_Charging>  (325) 
0

>  <r_epik_Ionization_Penalty_Neutral>  (325) 
1.78595e-07

>  <r_epik_State_Penalty>  (325) 
-0

>  <r_epik_Charging_Adjusted_Penalty>  (325) 
0

>  <i_epik_Tot_Q>  (325) 
0

>  <i_epik_Tot_abs_Q>  (325) 
0

>  <s_epik_Chemistry_Notes>  (325) 
This compound has an ester and may undergo hydrolysis at high or low pH.

>  <s_lp_Force_Field>  (325) 
OPLS3e

>  <r_lp_Energy>  (325) 
138.068

>  <b_lp_Chiralities_Consistent>  (325) 
1

>  <s_lp_Variant>  (325) 
91:0-1

>  <s_i_glide_gridfile>  (325) 
pfpi4k_grid

>  <i_i_glide_lignum>  (325) 
3

>  <i_i_glide_rotatable_bonds>  (325) 
2

>  <r_i_docking_score>  (325) 
-1.71453

>  <r_i_glide_ligand_efficiency>  (325) 
-0.0519553

>  <r_i_glide_ligand_efficiency_sa>  (325) 
-0.166649

>  <r_i_glide_ligand_efficiency_ln>  (325) 
-0.381302

>  <r_i_glide_gscore>  (325) 
-1.71453

>  <r_i_glide_lipo>  (325) 
-0.226639

>  <r_i_glide_hbond>  (325) 
-0.0459763

>  <r_i_glide_metal>  (325) 
-0

>  <r_i_glide_rewards>  (325) 
-0.323595

>  <r_i_glide_evdw>  (325) 
-23.4465

>  <r_i_glide_ecoul>  (325) 
-0.266187

>  <r_i_glide_erotb>  (325) 
0.097982

>  <r_i_glide_esite>  (325) 
-0.00404578

>  <r_i_glide_emodel>  (325) 
-23.6912

>  <r_i_glide_energy>  (325) 
-23.7127

>  <r_i_glide_einternal>  (325) 
0.374007

>  <r_i_glide_intrahb_reward>  (325) 
-0

>  <i_i_glide_confnum>  (325) 
3

>  <i_i_glide_posenum>  (325) 
22

>  <r_i_glide_eff_state_penalty>  (325) 
0

>  <ligand_id>  (325) 
91

>  <original_smiles>  (325) 
CC1(C)C2CC34C5C(CCC6(C)C(c7ccoc7)OC(=O)C7OC756)C(C)(C)C(O)C35OC25C14

>  <smiles>  (325) 
[H]OC1([H])C23OC24C2([H])C([H])([H])C3(C3([H])C([H])(C([H])([H])C([H])([H])C5(C([H])([H])[H])C([H])(c6c([H])oc([H])c6[H])OC(=O)C6([H])OC635)C1(C([H])([H])[H])C([H])([H])[H])C4([H])C2(C([H])([H])[H])C([H])([H])[H]

$$$$
93:0:0
     RDKit          3D

 83 88  0  0  1  0  0  0  0  0999 V2000
   -0.2808    1.3359    1.8474 C   0  0  0  0  0  0  0  0  0  0  0  0
    0.8192    0.4741    2.0597 O   0  0  0  0  0  0  0  0  0  0  0  0
    0.8233   -0.3889    3.0851 C   0  0  0  0  0  0  0  0  0  0  0  0
   -0.1226   -0.5769    3.8537 O   0  0  0  0  0  0  0  0  0  0  0  0
    2.1116   -1.0961    3.1916 C   0  0  0  0  0  0  0  0  0  0  0  0
    2.5027   -1.7577    4.2725 C   0  0  0  0  0  0  0  0  0  0  0  0
    3.9035   -2.3523    4.1893 C   0  0  2  0  0  0  0  0  0  0  0  0
    4.6610   -1.5609    5.3161 C   0  0  0  0  0  0  0  0  0  0  0  0
    4.3740   -1.8380    2.7182 C   0  0  1  0  0  0  0  0  0  0  0  0
    5.4278   -0.6858    2.7925 C   0  0  0  0  0  0  0  0  0  0  0  0
    5.0924   -2.8581    1.7420 C   0  0  0  0  0  0  0  0  0  0  0  0
    4.4801   -4.2064    1.2218 C   0  0  0  0  0  0  0  0  0  0  0  0
    4.2439   -5.4021    2.2198 C   0  0  2  0  0  0  0  0  0  0  0  0
    5.6868   -5.7580    2.7012 C   0  0  2  0  0  0  0  0  0  0  0  0
    6.1541   -7.0261    1.9845 C   0  0  0  0  0  0  0  0  0  0  0  0
    5.1271   -7.3834    1.0666 O   0  0  0  0  0  0  0  0  0  0  0  0
    3.9032   -6.7020    1.3504 C   0  0  1  0  0  0  0  0  0  0  0  0
    2.8628   -7.6171    2.0545 C   0  0  2  0  0  0  0  0  0  0  0  0
    3.6555   -8.0766    3.3318 C   0  0  0  0  0  0  0  0  0  0  0  0
    2.3339   -9.0104    1.7030 C   0  0  0  0  0  0  0  0  0  0  0  0
    1.3591   -9.4630    2.8845 C   0  0  0  0  0  0  0  0  0  0  0  0
    0.7235   -8.4248    3.9545 C   0  0  0  0  0  0  0  0  0  0  0  0
    1.3648   -7.1227    4.7392 C   0  0  0  0  0  0  0  0  0  0  0  0
    0.0809   -6.6468    5.4865 C   0  0  0  0  0  0  0  0  0  0  0  0
    2.2544   -7.5318    5.9610 C   0  0  0  0  0  0  0  0  0  0  0  0
    1.7995   -5.7878    3.8678 C   0  0  2  0  0  0  0  0  0  0  0  0
    0.9604   -5.9813    2.7647 O   0  0  0  0  0  0  0  0  0  0  0  0
    1.5226   -6.7902    1.7866 C   0  0  0  0  0  0  0  0  0  0  0  0
    3.1915   -4.9509    3.4108 C   0  0  2  0  0  0  0  0  0  0  0  0
    2.3745   -4.0384    2.7021 O   0  0  0  0  0  0  0  0  0  0  0  0
    3.9241   -3.9621    4.5108 C   0  0  2  0  0  0  0  0  0  0  0  0
    3.2400   -4.2211    5.8860 C   0  0  0  0  0  0  0  0  0  0  0  0
    5.4497   -4.3400    4.7254 C   0  0  1  0  0  0  0  0  0  0  0  0
    5.9537   -4.2225    6.0462 O   0  0  0  0  0  0  0  0  0  0  0  0
    5.9413   -5.6843    4.2114 C   0  0  0  0  0  0  0  0  0  0  0  0
    3.1345   -1.1081    2.0784 C   0  0  1  0  0  0  0  0  0  0  0  0
    2.6214   -1.7547    0.9237 O   0  0  0  0  0  0  0  0  0  0  0  0
   -0.0855    1.9408    0.9584 H   0  0  0  0  0  0  0  0  0  0  0  0
   -0.4236    2.0056    2.6985 H   0  0  0  0  0  0  0  0  0  0  0  0
   -1.2028    0.7749    1.6720 H   0  0  0  0  0  0  0  0  0  0  0  0
    1.8995   -1.8465    5.1647 H   0  0  0  0  0  0  0  0  0  0  0  0
    5.7406   -1.7107    5.3125 H   0  0  0  0  0  0  0  0  0  0  0  0
    4.3210   -1.7937    6.3208 H   0  0  0  0  0  0  0  0  0  0  0  0
    4.4919   -0.4897    5.2487 H   0  0  0  0  0  0  0  0  0  0  0  0
    5.7042   -0.3291    1.7973 H   0  0  0  0  0  0  0  0  0  0  0  0
    6.3487   -1.0020    3.2754 H   0  0  0  0  0  0  0  0  0  0  0  0
    5.0554    0.1957    3.3201 H   0  0  0  0  0  0  0  0  0  0  0  0
    5.2852   -2.3037    0.8223 H   0  0  0  0  0  0  0  0  0  0  0  0
    6.1050   -3.0188    2.1033 H   0  0  0  0  0  0  0  0  0  0  0  0
    3.5969   -4.0231    0.6122 H   0  0  0  0  0  0  0  0  0  0  0  0
    5.1898   -4.5704    0.4715 H   0  0  0  0  0  0  0  0  0  0  0  0
    6.4038   -5.0419    2.3145 H   0  0  0  0  0  0  0  0  0  0  0  0
    7.0767   -6.8522    1.4259 H   0  0  0  0  0  0  0  0  0  0  0  0
    6.3719   -7.8321    2.6849 H   0  0  0  0  0  0  0  0  0  0  0  0
    3.5406   -6.4181    0.3603 H   0  0  0  0  0  0  0  0  0  0  0  0
    3.2439   -8.7606    4.0529 H   0  0  0  0  0  0  0  0  0  0  0  0
    3.9892   -7.2578    3.9089 H   0  0  0  0  0  0  0  0  0  0  0  0
    4.5127   -8.6710    3.0377 H   0  0  0  0  0  0  0  0  0  0  0  0
    1.8178   -9.0327    0.7459 H   0  0  0  0  0  0  0  0  0  0  0  0
    3.1397   -9.7403    1.5863 H   0  0  0  0  0  0  0  0  0  0  0  0
    0.5247   -9.9980    2.4224 H   0  0  0  0  0  0  0  0  0  0  0  0
    1.8610  -10.2551    3.4454 H   0  0  0  0  0  0  0  0  0  0  0  0
   -0.2065   -8.0939    3.4888 H   0  0  0  0  0  0  0  0  0  0  0  0
    0.3564   -9.0898    4.7399 H   0  0  0  0  0  0  0  0  0  0  0  0
    0.2684   -5.8025    6.1514 H   0  0  0  0  0  0  0  0  0  0  0  0
   -0.3270   -7.4457    6.1062 H   0  0  0  0  0  0  0  0  0  0  0  0
   -0.7050   -6.3366    4.7977 H   0  0  0  0  0  0  0  0  0  0  0  0
    3.3254   -7.4422    5.8264 H   0  0  0  0  0  0  0  0  0  0  0  0
    2.0614   -8.5697    6.2432 H   0  0  0  0  0  0  0  0  0  0  0  0
    2.0425   -6.9404    6.8536 H   0  0  0  0  0  0  0  0  0  0  0  0
    1.2459   -5.0054    4.3811 H   0  0  0  0  0  0  0  0  0  0  0  0
    1.5826   -6.1699    0.8903 H   0  0  0  0  0  0  0  0  0  0  0  0
    0.6695   -7.4063    1.5049 H   0  0  0  0  0  0  0  0  0  0  0  0
    2.9259   -3.3967    2.2748 H   0  0  0  0  0  0  0  0  0  0  0  0
    3.3689   -5.2575    6.1647 H   0  0  0  0  0  0  0  0  0  0  0  0
    2.1838   -3.9728    5.9068 H   0  0  0  0  0  0  0  0  0  0  0  0
    3.6658   -3.6757    6.7210 H   0  0  0  0  0  0  0  0  0  0  0  0
    6.0245   -3.6140    4.1728 H   0  0  0  0  0  0  0  0  0  0  0  0
    5.5430   -4.8822    6.5876 H   0  0  0  0  0  0  0  0  0  0  0  0
    5.5508   -6.5012    4.8106 H   0  0  0  0  0  0  0  0  0  0  0  0
    7.0187   -5.7538    4.3691 H   0  0  0  0  0  0  0  0  0  0  0  0
    3.3530   -0.0694    1.8109 H   0  0  0  0  0  0  0  0  0  0  0  0
    1.9815   -1.2003    0.4769 H   0  0  0  0  0  0  0  0  0  0  0  0
  1  2  1  0
  1 38  1  0
  1 39  1  0
  1 40  1  0
  2  3  1  0
  3  4  2  0
  3  5  1  0
  5 36  1  0
  5  6  2  0
  6  7  1  0
  6 41  1  0
  7 31  1  0
  7  8  1  1
  7  9  1  0
  8 42  1  0
  8 43  1  0
  8 44  1  0
  9 10  1  1
  9 11  1  0
  9 36  1  0
 10 45  1  0
 10 46  1  0
 10 47  1  0
 11 12  1  0
 11 48  1  0
 11 49  1  0
 13 12  1  6
 12 50  1  0
 12 51  1  0
 13 17  1  0
 13 29  1  0
 13 14  1  0
 14 35  1  0
 14 15  1  0
 14 52  1  6
 15 16  1  0
 15 53  1  0
 15 54  1  0
 16 17  1  0
 17 18  1  0
 17 55  1  6
 18 28  1  0
 18 19  1  1
 18 20  1  0
 19 56  1  0
 19 57  1  0
 19 58  1  0
 20 21  1  0
 20 59  1  0
 20 60  1  0
 21 22  1  0
 21 61  1  0
 21 62  1  0
 22 23  1  0
 22 63  1  0
 22 64  1  0
 23 24  1  0
 23 25  1  0
 23 26  1  0
 24 65  1  0
 24 66  1  0
 24 67  1  0
 25 68  1  0
 25 69  1  0
 25 70  1  0
 26 27  1  0
 26 29  1  0
 26 71  1  1
 27 28  1  0
 28 72  1  0
 28 73  1  0
 29 30  1  6
 29 31  1  0
 30 74  1  0
 31 32  1  1
 31 33  1  0
 32 75  1  0
 32 76  1  0
 32 77  1  0
 33 34  1  0
 33 35  1  0
 33 78  1  6
 34 79  1  0
 35 80  1  0
 35 81  1  0
 36 37  1  0
 36 82  1  6
 37 83  1  0
M  END
>  <i_m_ct_stereo_status>  (326) 
1

>  <s_m_source_file>  (326) 
/var/tmp/pbs.5083858.sched01/tmpwjm1f1st/135fnrmq3q8.sdf

>  <i_m_source_file_index>  (326) 
2

>  <i_lp_mmshare_version>  (326) 
48012

>  <i_f3d_flags>  (326) 
0

>  <s_epik_input>  (326) 
W0NIM11PQyg9TylDKD1bQ0hdMSlbQ0BIXShbT0hdKVtDQF0oW0NIM10pKFtDSDJdW0NIMl0yKVtDQF0xKFtDSDNdKVtDQF0oW0NIM10pKFtDQEBIXShbT0hdKVtDSDJdMylbQ0BdNChbT0hdKVtDQEBIXShPW0NIMl01KUMoW0NIM10pKFtDSDNdKVtDSDJdW0NIMl1bQ0gyXVtDQEBdNShbQ0gzXSlbQ0BASF02T1tDSDJdW0NASF0zW0NAXTI0Ng==

>  <s_epik_cmdline>  (326) 
J2VwaWtfcHl0aG9uJywgJy1waHQnLCAnMi4wJywgJy1waCcsICc3LjAnLCAnLXRuJywgJzgnLCAnLW1hJywgJzIwMCcsICctaW1hZScsICc8aW5maWxlLm1hZT4nLCAnLW9tYWUnLCAnPG91dGZpbGUubWFlPic=

>  <r_lp_tautomer_probability>  (326) 
1

>  <r_epik_Ionization_Penalty>  (326) 
3.74982e-06

>  <r_epik_Ionization_Penalty_Charging>  (326) 
0

>  <r_epik_Ionization_Penalty_Neutral>  (326) 
3.74982e-06

>  <r_epik_State_Penalty>  (326) 
-0

>  <r_epik_Charging_Adjusted_Penalty>  (326) 
0

>  <i_epik_Tot_Q>  (326) 
0

>  <i_epik_Tot_abs_Q>  (326) 
0

>  <s_epik_Chemistry_Notes>  (326) 
This compound has an ester and may undergo hydrolysis at high or low pH.

>  <s_lp_Force_Field>  (326) 
OPLS3e

>  <r_lp_Energy>  (326) 
284.231

>  <b_lp_Chiralities_Consistent>  (326) 
1

>  <s_lp_Variant>  (326) 
93:0-1

>  <s_i_glide_gridfile>  (326) 
pfpi4k_grid

>  <i_i_glide_lignum>  (326) 
2

>  <i_i_glide_rotatable_bonds>  (326) 
5

>  <r_i_docking_score>  (326) 
-2.31065

>  <r_i_glide_ligand_efficiency>  (326) 
-0.0624501

>  <r_i_glide_ligand_efficiency_sa>  (326) 
-0.208098

>  <r_i_glide_ligand_efficiency_ln>  (326) 
-0.501127

>  <r_i_glide_gscore>  (326) 
-2.31065

>  <r_i_glide_lipo>  (326) 
-0.414317

>  <r_i_glide_hbond>  (326) 
0

>  <r_i_glide_metal>  (326) 
-0

>  <r_i_glide_rewards>  (326) 
0

>  <r_i_glide_evdw>  (326) 
-29.5012

>  <r_i_glide_ecoul>  (326) 
-3.16395

>  <r_i_glide_erotb>  (326) 
0.0763479

>  <r_i_glide_esite>  (326) 
-0.0230318

>  <r_i_glide_emodel>  (326) 
-36.2343

>  <r_i_glide_energy>  (326) 
-32.6651

>  <r_i_glide_einternal>  (326) 
3.29927

>  <r_i_glide_intrahb_reward>  (326) 
-0

>  <i_i_glide_confnum>  (326) 
2

>  <i_i_glide_posenum>  (326) 
32

>  <r_i_glide_eff_state_penalty>  (326) 
0

>  <ligand_id>  (326) 
93

>  <original_smiles>  (326) 
COC(=O)C1=CC2(C)C(C)(CCC34C5COC3C3(C)CCCC(C)(C)C(OC3)C4(O)C2(C)C(O)C5)C1O

>  <smiles>  (326) 
[H]OC1([H])C(C(=O)OC([H])([H])[H])=C([H])C2(C([H])([H])[H])C1(C([H])([H])[H])C([H])([H])C([H])([H])C13C4([H])OC([H])([H])C1([H])C([H])([H])C([H])(O[H])C2(C([H])([H])[H])C3(O[H])C1([H])OC([H])([H])C4(C([H])([H])[H])C([H])([H])C([H])([H])C([H])([H])C1(C([H])([H])[H])C([H])([H])[H]

$$$$
93:0:1
     RDKit          3D

 83 88  0  0  1  0  0  0  0  0999 V2000
   -0.9719    0.2158    4.3540 C   0  0  0  0  0  0  0  0  0  0  0  0
    0.2182   -0.5545    4.2601 O   0  0  0  0  0  0  0  0  0  0  0  0
    0.9203   -0.5291    3.1020 C   0  0  0  0  0  0  0  0  0  0  0  0
    0.5901    0.1207    2.1147 O   0  0  0  0  0  0  0  0  0  0  0  0
    2.1254   -1.3843    3.1443 C   0  0  0  0  0  0  0  0  0  0  0  0
    2.6164   -1.9653    4.2390 C   0  0  0  0  0  0  0  0  0  0  0  0
    3.9132   -2.7336    4.0257 C   0  0  2  0  0  0  0  0  0  0  0  0
    4.8990   -1.9364    4.9452 C   0  0  0  0  0  0  0  0  0  0  0  0
    4.2064   -2.4361    2.4530 C   0  0  1  0  0  0  0  0  0  0  0  0
    5.3924   -1.4379    2.2440 C   0  0  0  0  0  0  0  0  0  0  0  0
    4.6489   -3.6328    1.5153 C   0  0  0  0  0  0  0  0  0  0  0  0
    3.8158   -4.9363    1.2514 C   0  0  0  0  0  0  0  0  0  0  0  0
    3.6016   -5.9828    2.4151 C   0  0  2  0  0  0  0  0  0  0  0  0
    5.0511   -6.4743    2.7215 C   0  0  2  0  0  0  0  0  0  0  0  0
    5.2464   -7.8573    2.0994 C   0  0  0  0  0  0  0  0  0  0  0  0
    4.0544   -8.1611    1.3831 O   0  0  0  0  0  0  0  0  0  0  0  0
    2.9762   -7.3027    1.7677 C   0  0  1  0  0  0  0  0  0  0  0  0
    1.9590   -8.0005    2.7136 C   0  0  2  0  0  0  0  0  0  0  0  0
    2.8833   -8.4321    3.9079 C   0  0  0  0  0  0  0  0  0  0  0  0
    1.2215   -9.3344    2.6011 C   0  0  0  0  0  0  0  0  0  0  0  0
    0.4018   -9.5347    3.9572 C   0  0  0  0  0  0  0  0  0  0  0  0
    0.0648   -8.3226    4.9832 C   0  0  0  0  0  0  0  0  0  0  0  0
    0.9669   -7.0412    5.5087 C   0  0  0  0  0  0  0  0  0  0  0  0
   -0.1098   -6.3077    6.3697 C   0  0  0  0  0  0  0  0  0  0  0  0
    1.9837   -7.4421    6.6284 C   0  0  0  0  0  0  0  0  0  0  0  0
    1.4159   -5.8781    4.4280 C   0  0  2  0  0  0  0  0  0  0  0  0
    0.3959   -6.0671    3.4916 O   0  0  0  0  0  0  0  0  0  0  0  0
    0.6978   -7.0367    2.5450 C   0  0  0  0  0  0  0  0  0  0  0  0
    2.8095   -5.2850    3.6799 C   0  0  2  0  0  0  0  0  0  0  0  0
    2.0048   -4.3610    2.9741 O   0  0  0  0  0  0  0  0  0  0  0  0
    3.8137   -4.2921    4.5307 C   0  0  2  0  0  0  0  0  0  0  0  0
    3.3267   -4.3182    6.0140 C   0  0  0  0  0  0  0  0  0  0  0  0
    5.3123   -4.8351    4.5582 C   0  0  1  0  0  0  0  0  0  0  0  0
    6.0161   -4.6545    5.7772 O   0  0  0  0  0  0  0  0  0  0  0  0
    5.5499   -6.2815    4.1572 C   0  0  0  0  0  0  0  0  0  0  0  0
    2.9651   -1.6195    1.9113 C   0  0  1  0  0  0  0  0  0  0  0  0
    2.2302   -2.2547    0.8761 O   0  0  0  0  0  0  0  0  0  0  0  0
   -1.4304    0.0722    5.3330 H   0  0  0  0  0  0  0  0  0  0  0  0
   -1.6969   -0.0834    3.5948 H   0  0  0  0  0  0  0  0  0  0  0  0
   -0.7589    1.2790    4.2250 H   0  0  0  0  0  0  0  0  0  0  0  0
    2.1824   -1.8720    5.2228 H   0  0  0  0  0  0  0  0  0  0  0  0
    5.9219   -2.2623    4.8215 H   0  0  0  0  0  0  0  0  0  0  0  0
    4.6917   -2.0082    6.0091 H   0  0  0  0  0  0  0  0  0  0  0  0
    4.8742   -0.8650    4.7634 H   0  0  0  0  0  0  0  0  0  0  0  0
    5.5516   -1.2168    1.1847 H   0  0  0  0  0  0  0  0  0  0  0  0
    6.3396   -1.8299    2.6138 H   0  0  0  0  0  0  0  0  0  0  0  0
    5.2195   -0.4650    2.7095 H   0  0  0  0  0  0  0  0  0  0  0  0
    4.7556   -3.2041    0.5182 H   0  0  0  0  0  0  0  0  0  0  0  0
    5.6822   -3.8875    1.7430 H   0  0  0  0  0  0  0  0  0  0  0  0
    2.8744   -4.6909    0.7640 H   0  0  0  0  0  0  0  0  0  0  0  0
    4.3461   -5.4623    0.4545 H   0  0  0  0  0  0  0  0  0  0  0  0
    5.7738   -5.9015    2.1511 H   0  0  0  0  0  0  0  0  0  0  0  0
    6.0883   -7.8653    1.4053 H   0  0  0  0  0  0  0  0  0  0  0  0
    5.4741   -8.6118    2.8511 H   0  0  0  0  0  0  0  0  0  0  0  0
    2.4927   -7.0612    0.8227 H   0  0  0  0  0  0  0  0  0  0  0  0
    2.5130   -8.9790    4.7587 H   0  0  0  0  0  0  0  0  0  0  0  0
    3.3978   -7.6102    4.3291 H   0  0  0  0  0  0  0  0  0  0  0  0
    3.6102   -9.1591    3.5662 H   0  0  0  0  0  0  0  0  0  0  0  0
    0.5617   -9.3715    1.7324 H   0  0  0  0  0  0  0  0  0  0  0  0
    1.9066  -10.1726    2.4524 H   0  0  0  0  0  0  0  0  0  0  0  0
   -0.5484  -10.0006    3.6857 H   0  0  0  0  0  0  0  0  0  0  0  0
    0.8893  -10.3287    4.5293 H   0  0  0  0  0  0  0  0  0  0  0  0
   -0.8831   -7.9233    4.6198 H   0  0  0  0  0  0  0  0  0  0  0  0
   -0.2461   -8.8533    5.8837 H   0  0  0  0  0  0  0  0  0  0  0  0
    0.2770   -5.4248    6.8789 H   0  0  0  0  0  0  0  0  0  0  0  0
   -0.4868   -6.9552    7.1610 H   0  0  0  0  0  0  0  0  0  0  0  0
   -0.9625   -5.9853    5.7706 H   0  0  0  0  0  0  0  0  0  0  0  0
    3.0229   -7.5068    6.3284 H   0  0  0  0  0  0  0  0  0  0  0  0
    1.7217   -8.4140    7.0539 H   0  0  0  0  0  0  0  0  0  0  0  0
    1.9851   -6.7423    7.4653 H   0  0  0  0  0  0  0  0  0  0  0  0
    1.0438   -4.9771    4.9110 H   0  0  0  0  0  0  0  0  0  0  0  0
    0.6824   -6.5251    1.5800 H   0  0  0  0  0  0  0  0  0  0  0  0
   -0.2537   -7.5585    2.4662 H   0  0  0  0  0  0  0  0  0  0  0  0
    1.6851   -3.7140    3.5790 H   0  0  0  0  0  0  0  0  0  0  0  0
    3.3752   -5.3287    6.3941 H   0  0  0  0  0  0  0  0  0  0  0  0
    2.3213   -3.9342    6.1569 H   0  0  0  0  0  0  0  0  0  0  0  0
    3.9347   -3.7532    6.7120 H   0  0  0  0  0  0  0  0  0  0  0  0
    5.8870   -4.2611    3.8443 H   0  0  0  0  0  0  0  0  0  0  0  0
    5.6302   -5.2137    6.4365 H   0  0  0  0  0  0  0  0  0  0  0  0
    5.1550   -6.9632    4.9043 H   0  0  0  0  0  0  0  0  0  0  0  0
    6.6218   -6.4843    4.1688 H   0  0  0  0  0  0  0  0  0  0  0  0
    3.2587   -0.6408    1.5220 H   0  0  0  0  0  0  0  0  0  0  0  0
    1.7409   -1.6153    0.3482 H   0  0  0  0  0  0  0  0  0  0  0  0
  1  2  1  0
  1 38  1  0
  1 39  1  0
  1 40  1  0
  2  3  1  0
  3  4  2  0
  3  5  1  0
  5 36  1  0
  5  6  2  0
  6  7  1  0
  6 41  1  0
  7 31  1  0
  7  8  1  1
  7  9  1  0
  8 42  1  0
  8 43  1  0
  8 44  1  0
  9 10  1  1
  9 11  1  0
  9 36  1  0
 10 45  1  0
 10 46  1  0
 10 47  1  0
 11 12  1  0
 11 48  1  0
 11 49  1  0
 13 12  1  6
 12 50  1  0
 12 51  1  0
 13 17  1  0
 13 29  1  0
 13 14  1  0
 14 35  1  0
 14 15  1  0
 14 52  1  6
 15 16  1  0
 15 53  1  0
 15 54  1  0
 16 17  1  0
 17 18  1  0
 17 55  1  6
 18 28  1  0
 18 19  1  1
 18 20  1  0
 19 56  1  0
 19 57  1  0
 19 58  1  0
 20 21  1  0
 20 59  1  0
 20 60  1  0
 21 22  1  0
 21 61  1  0
 21 62  1  0
 22 23  1  0
 22 63  1  0
 22 64  1  0
 23 24  1  0
 23 25  1  0
 23 26  1  0
 24 65  1  0
 24 66  1  0
 24 67  1  0
 25 68  1  0
 25 69  1  0
 25 70  1  0
 26 27  1  0
 26 29  1  0
 26 71  1  1
 27 28  1  0
 28 72  1  0
 28 73  1  0
 29 30  1  6
 29 31  1  0
 30 74  1  0
 31 32  1  1
 31 33  1  0
 32 75  1  0
 32 76  1  0
 32 77  1  0
 33 34  1  0
 33 35  1  0
 33 78  1  6
 34 79  1  0
 35 80  1  0
 35 81  1  0
 36 37  1  0
 36 82  1  6
 37 83  1  0
M  END
>  <i_m_ct_stereo_status>  (327) 
1

>  <s_m_source_file>  (327) 
/var/tmp/pbs.5083858.sched01/tmpwjm1f1st/135fnrmq3q8.sdf

>  <i_m_source_file_index>  (327) 
2

>  <i_lp_mmshare_version>  (327) 
48012

>  <i_f3d_flags>  (327) 
0

>  <s_epik_input>  (327) 
W0NIM11PQyg9TylDKD1bQ0hdMSlbQ0BIXShbT0hdKVtDQF0oW0NIM10pKFtDSDJdW0NIMl0yKVtDQF0xKFtDSDNdKVtDQF0oW0NIM10pKFtDQEBIXShbT0hdKVtDSDJdMylbQ0BdNChbT0hdKVtDQEBIXShPW0NIMl01KUMoW0NIM10pKFtDSDNdKVtDSDJdW0NIMl1bQ0gyXVtDQEBdNShbQ0gzXSlbQ0BASF02T1tDSDJdW0NASF0zW0NAXTI0Ng==

>  <s_epik_cmdline>  (327) 
J2VwaWtfcHl0aG9uJywgJy1waHQnLCAnMi4wJywgJy1waCcsICc3LjAnLCAnLXRuJywgJzgnLCAnLW1hJywgJzIwMCcsICctaW1hZScsICc8aW5maWxlLm1hZT4nLCAnLW9tYWUnLCAnPG91dGZpbGUubWFlPic=

>  <r_lp_tautomer_probability>  (327) 
1

>  <r_epik_Ionization_Penalty>  (327) 
3.74982e-06

>  <r_epik_Ionization_Penalty_Charging>  (327) 
0

>  <r_epik_Ionization_Penalty_Neutral>  (327) 
3.74982e-06

>  <r_epik_State_Penalty>  (327) 
-0

>  <r_epik_Charging_Adjusted_Penalty>  (327) 
0

>  <i_epik_Tot_Q>  (327) 
0

>  <i_epik_Tot_abs_Q>  (327) 
0

>  <s_epik_Chemistry_Notes>  (327) 
This compound has an ester and may undergo hydrolysis at high or low pH.

>  <s_lp_Force_Field>  (327) 
OPLS3e

>  <r_lp_Energy>  (327) 
284.231

>  <b_lp_Chiralities_Consistent>  (327) 
1

>  <s_lp_Variant>  (327) 
93:0-1

>  <s_i_glide_gridfile>  (327) 
pfpi4k_grid

>  <i_i_glide_lignum>  (327) 
2

>  <i_i_glide_rotatable_bonds>  (327) 
5

>  <r_i_docking_score>  (327) 
-2.13798

>  <r_i_glide_ligand_efficiency>  (327) 
-0.0577832

>  <r_i_glide_ligand_efficiency_sa>  (327) 
-0.192546

>  <r_i_glide_ligand_efficiency_ln>  (327) 
-0.463677

>  <r_i_glide_gscore>  (327) 
-2.13798

>  <r_i_glide_lipo>  (327) 
-0.30159

>  <r_i_glide_hbond>  (327) 
-0.0262244

>  <r_i_glide_metal>  (327) 
-0

>  <r_i_glide_rewards>  (327) 
0

>  <r_i_glide_evdw>  (327) 
-26.6229

>  <r_i_glide_ecoul>  (327) 
-3.4093

>  <r_i_glide_erotb>  (327) 
0.0534436

>  <r_i_glide_esite>  (327) 
-0.021067

>  <r_i_glide_emodel>  (327) 
-34.4278

>  <r_i_glide_energy>  (327) 
-30.0322

>  <r_i_glide_einternal>  (327) 
0.795963

>  <r_i_glide_intrahb_reward>  (327) 
-0

>  <i_i_glide_confnum>  (327) 
2

>  <i_i_glide_posenum>  (327) 
21

>  <r_i_glide_eff_state_penalty>  (327) 
0

>  <ligand_id>  (327) 
93

>  <original_smiles>  (327) 
COC(=O)C1=CC2(C)C(C)(CCC34C5COC3C3(C)CCCC(C)(C)C(OC3)C4(O)C2(C)C(O)C5)C1O

>  <smiles>  (327) 
[H]OC1([H])C(C(=O)OC([H])([H])[H])=C([H])C2(C([H])([H])[H])C1(C([H])([H])[H])C([H])([H])C([H])([H])C13C4([H])OC([H])([H])C1([H])C([H])([H])C([H])(O[H])C2(C([H])([H])[H])C3(O[H])C1([H])OC([H])([H])C4(C([H])([H])[H])C([H])([H])C([H])([H])C([H])([H])C1(C([H])([H])[H])C([H])([H])[H]

$$$$
93:0:2
     RDKit          3D

 83 88  0  0  1  0  0  0  0  0999 V2000
   -0.9845    0.2453    4.3098 C   0  0  0  0  0  0  0  0  0  0  0  0
    0.1956   -0.5366    4.2218 O   0  0  0  0  0  0  0  0  0  0  0  0
    0.9213   -0.5013    3.0832 C   0  0  0  0  0  0  0  0  0  0  0  0
    0.6076    0.1583    2.0955 O   0  0  0  0  0  0  0  0  0  0  0  0
    2.1307   -1.3434    3.1382 C   0  0  0  0  0  0  0  0  0  0  0  0
    2.6129   -1.9167    4.2418 C   0  0  0  0  0  0  0  0  0  0  0  0
    3.9050   -2.6955    4.0387 C   0  0  2  0  0  0  0  0  0  0  0  0
    4.8913   -1.8891    4.9475 C   0  0  0  0  0  0  0  0  0  0  0  0
    4.2026   -2.4209    2.4620 C   0  0  1  0  0  0  0  0  0  0  0  0
    5.3933   -1.4330    2.2403 C   0  0  0  0  0  0  0  0  0  0  0  0
    4.6378   -3.6345    1.5408 C   0  0  0  0  0  0  0  0  0  0  0  0
    3.7996   -4.9397    1.2943 C   0  0  0  0  0  0  0  0  0  0  0  0
    3.5833   -5.9698    2.4667 C   0  0  2  0  0  0  0  0  0  0  0  0
    5.0348   -6.4603    2.7861 C   0  0  2  0  0  0  0  0  0  0  0  0
    5.2299   -7.8534    2.1883 C   0  0  0  0  0  0  0  0  0  0  0  0
    4.0410   -8.1629    1.4718 O   0  0  0  0  0  0  0  0  0  0  0  0
    2.9607   -7.3023    1.8357 C   0  0  1  0  0  0  0  0  0  0  0  0
    1.9430   -7.9812    2.7921 C   0  0  2  0  0  0  0  0  0  0  0  0
    2.8642   -8.3942    3.9979 C   0  0  0  0  0  0  0  0  0  0  0  0
    1.2000   -9.3146    2.7030 C   0  0  0  0  0  0  0  0  0  0  0  0
    0.3804   -9.4903    4.0587 C   0  0  0  0  0  0  0  0  0  0  0  0
    0.0442   -8.2648    5.0638 C   0  0  0  0  0  0  0  0  0  0  0  0
    0.9476   -6.9786    5.5711 C   0  0  0  0  0  0  0  0  0  0  0  0
   -0.1331   -6.2348    6.4207 C   0  0  0  0  0  0  0  0  0  0  0  0
    1.9590   -7.3625    6.7013 C   0  0  0  0  0  0  0  0  0  0  0  0
    1.4014   -5.8283    4.4751 C   0  0  2  0  0  0  0  0  0  0  0  0
    0.3831   -6.0323    3.5369 O   0  0  0  0  0  0  0  0  0  0  0  0
    0.6853   -7.0166    2.6065 C   0  0  0  0  0  0  0  0  0  0  0  0
    2.7933   -5.2447    3.7212 C   0  0  2  0  0  0  0  0  0  0  0  0
    1.9892   -4.3204    3.0138 O   0  0  0  0  0  0  0  0  0  0  0  0
    3.7983   -4.2448    4.5602 C   0  0  2  0  0  0  0  0  0  0  0  0
    3.3093   -4.2519    6.0423 C   0  0  0  0  0  0  0  0  0  0  0  0
    5.2933   -4.7949    4.5945 C   0  0  1  0  0  0  0  0  0  0  0  0
    5.9832   -4.6147    5.8201 O   0  0  0  0  0  0  0  0  0  0  0  0
    5.5299   -6.2466    4.2200 C   0  0  0  0  0  0  0  0  0  0  0  0
    2.9683   -1.6002    1.9112 C   0  0  1  0  0  0  0  0  0  0  0  0
    2.2207   -2.2607    0.9015 O   0  0  0  0  0  0  0  0  0  0  0  0
   -1.4798    0.0770    5.2686 H   0  0  0  0  0  0  0  0  0  0  0  0
   -1.6880   -0.0096    3.5142 H   0  0  0  0  0  0  0  0  0  0  0  0
   -0.7444    1.3072    4.2253 H   0  0  0  0  0  0  0  0  0  0  0  0
    2.1660   -1.8250    5.2185 H   0  0  0  0  0  0  0  0  0  0  0  0
    5.9132   -2.2141    4.8253 H   0  0  0  0  0  0  0  0  0  0  0  0
    4.6774   -1.9410    6.0114 H   0  0  0  0  0  0  0  0  0  0  0  0
    4.8656   -0.8200    4.7484 H   0  0  0  0  0  0  0  0  0  0  0  0
    5.5517   -1.2286    1.1780 H   0  0  0  0  0  0  0  0  0  0  0  0
    6.3375   -1.8225    2.6156 H   0  0  0  0  0  0  0  0  0  0  0  0
    5.2251   -0.4525    2.6904 H   0  0  0  0  0  0  0  0  0  0  0  0
    4.7523   -3.2198    0.5363 H   0  0  0  0  0  0  0  0  0  0  0  0
    5.6694   -3.8906    1.7743 H   0  0  0  0  0  0  0  0  0  0  0  0
    2.8644   -4.7070    0.7929 H   0  0  0  0  0  0  0  0  0  0  0  0
    4.3398   -5.4764    0.5095 H   0  0  0  0  0  0  0  0  0  0  0  0
    5.7615   -5.8979    2.2084 H   0  0  0  0  0  0  0  0  0  0  0  0
    6.0734   -7.8749    1.4944 H   0  0  0  0  0  0  0  0  0  0  0  0
    5.4551   -8.5984    2.9523 H   0  0  0  0  0  0  0  0  0  0  0  0
    2.4868   -7.0816    0.8779 H   0  0  0  0  0  0  0  0  0  0  0  0
    2.4899   -8.9283    4.8553 H   0  0  0  0  0  0  0  0  0  0  0  0
    3.3805   -7.5678    4.4082 H   0  0  0  0  0  0  0  0  0  0  0  0
    3.5902   -9.1306    3.6699 H   0  0  0  0  0  0  0  0  0  0  0  0
    0.5396   -9.3657    1.8349 H   0  0  0  0  0  0  0  0  0  0  0  0
    1.8828  -10.1575    2.5687 H   0  0  0  0  0  0  0  0  0  0  0  0
   -0.5724   -9.9528    3.7944 H   0  0  0  0  0  0  0  0  0  0  0  0
    0.8621  -10.2765    4.6440 H   0  0  0  0  0  0  0  0  0  0  0  0
   -0.9018   -7.8673    4.6928 H   0  0  0  0  0  0  0  0  0  0  0  0
   -0.2689   -8.7813    5.9735 H   0  0  0  0  0  0  0  0  0  0  0  0
    0.2552   -5.3444    6.9167 H   0  0  0  0  0  0  0  0  0  0  0  0
   -0.5194   -6.8684    7.2198 H   0  0  0  0  0  0  0  0  0  0  0  0
   -0.9815   -5.9147    5.8137 H   0  0  0  0  0  0  0  0  0  0  0  0
    2.9997   -7.4336    6.4068 H   0  0  0  0  0  0  0  0  0  0  0  0
    1.6958   -8.3268    7.1415 H   0  0  0  0  0  0  0  0  0  0  0  0
    1.9596   -6.6503    7.5267 H   0  0  0  0  0  0  0  0  0  0  0  0
    1.0258   -4.9229    4.9431 H   0  0  0  0  0  0  0  0  0  0  0  0
    0.6746   -6.5193    1.6360 H   0  0  0  0  0  0  0  0  0  0  0  0
   -0.2693   -7.5371    2.5331 H   0  0  0  0  0  0  0  0  0  0  0  0
    2.5419   -3.7894    2.4592 H   0  0  0  0  0  0  0  0  0  0  0  0
    3.3594   -5.2581    6.4375 H   0  0  0  0  0  0  0  0  0  0  0  0
    2.3019   -3.8677    6.1762 H   0  0  0  0  0  0  0  0  0  0  0  0
    3.9127   -3.6782    6.7383 H   0  0  0  0  0  0  0  0  0  0  0  0
    5.8812   -4.2318    3.8793 H   0  0  0  0  0  0  0  0  0  0  0  0
    5.9925   -3.6916    6.0254 H   0  0  0  0  0  0  0  0  0  0  0  0
    5.1343   -6.9076    4.9809 H   0  0  0  0  0  0  0  0  0  0  0  0
    6.6016   -6.4500    4.2402 H   0  0  0  0  0  0  0  0  0  0  0  0
    3.2625   -0.6313    1.5006 H   0  0  0  0  0  0  0  0  0  0  0  0
    1.7400   -1.6316    0.3521 H   0  0  0  0  0  0  0  0  0  0  0  0
  1  2  1  0
  1 38  1  0
  1 39  1  0
  1 40  1  0
  2  3  1  0
  3  4  2  0
  3  5  1  0
  5 36  1  0
  5  6  2  0
  6  7  1  0
  6 41  1  0
  7 31  1  0
  7  8  1  1
  7  9  1  0
  8 42  1  0
  8 43  1  0
  8 44  1  0
  9 10  1  1
  9 11  1  0
  9 36  1  0
 10 45  1  0
 10 46  1  0
 10 47  1  0
 11 12  1  0
 11 48  1  0
 11 49  1  0
 13 12  1  6
 12 50  1  0
 12 51  1  0
 13 17  1  0
 13 29  1  0
 13 14  1  0
 14 35  1  0
 14 15  1  0
 14 52  1  6
 15 16  1  0
 15 53  1  0
 15 54  1  0
 16 17  1  0
 17 18  1  0
 17 55  1  6
 18 28  1  0
 18 19  1  1
 18 20  1  0
 19 56  1  0
 19 57  1  0
 19 58  1  0
 20 21  1  0
 20 59  1  0
 20 60  1  0
 21 22  1  0
 21 61  1  0
 21 62  1  0
 22 23  1  0
 22 63  1  0
 22 64  1  0
 23 24  1  0
 23 25  1  0
 23 26  1  0
 24 65  1  0
 24 66  1  0
 24 67  1  0
 25 68  1  0
 25 69  1  0
 25 70  1  0
 26 27  1  0
 26 29  1  0
 26 71  1  1
 27 28  1  0
 28 72  1  0
 28 73  1  0
 29 30  1  6
 29 31  1  0
 30 74  1  0
 31 32  1  1
 31 33  1  0
 32 75  1  0
 32 76  1  0
 32 77  1  0
 33 34  1  0
 33 35  1  0
 33 78  1  6
 34 79  1  0
 35 80  1  0
 35 81  1  0
 36 37  1  0
 36 82  1  6
 37 83  1  0
M  END
>  <i_m_ct_stereo_status>  (328) 
1

>  <s_m_source_file>  (328) 
/var/tmp/pbs.5083858.sched01/tmpwjm1f1st/135fnrmq3q8.sdf

>  <i_m_source_file_index>  (328) 
2

>  <i_lp_mmshare_version>  (328) 
48012

>  <i_f3d_flags>  (328) 
0

>  <s_epik_input>  (328) 
W0NIM11PQyg9TylDKD1bQ0hdMSlbQ0BIXShbT0hdKVtDQF0oW0NIM10pKFtDSDJdW0NIMl0yKVtDQF0xKFtDSDNdKVtDQF0oW0NIM10pKFtDQEBIXShbT0hdKVtDSDJdMylbQ0BdNChbT0hdKVtDQEBIXShPW0NIMl01KUMoW0NIM10pKFtDSDNdKVtDSDJdW0NIMl1bQ0gyXVtDQEBdNShbQ0gzXSlbQ0BASF02T1tDSDJdW0NASF0zW0NAXTI0Ng==

>  <s_epik_cmdline>  (328) 
J2VwaWtfcHl0aG9uJywgJy1waHQnLCAnMi4wJywgJy1waCcsICc3LjAnLCAnLXRuJywgJzgnLCAnLW1hJywgJzIwMCcsICctaW1hZScsICc8aW5maWxlLm1hZT4nLCAnLW9tYWUnLCAnPG91dGZpbGUubWFlPic=

>  <r_lp_tautomer_probability>  (328) 
1

>  <r_epik_Ionization_Penalty>  (328) 
3.74982e-06

>  <r_epik_Ionization_Penalty_Charging>  (328) 
0

>  <r_epik_Ionization_Penalty_Neutral>  (328) 
3.74982e-06

>  <r_epik_State_Penalty>  (328) 
-0

>  <r_epik_Charging_Adjusted_Penalty>  (328) 
0

>  <i_epik_Tot_Q>  (328) 
0

>  <i_epik_Tot_abs_Q>  (328) 
0

>  <s_epik_Chemistry_Notes>  (328) 
This compound has an ester and may undergo hydrolysis at high or low pH.

>  <s_lp_Force_Field>  (328) 
OPLS3e

>  <r_lp_Energy>  (328) 
284.231

>  <b_lp_Chiralities_Consistent>  (328) 
1

>  <s_lp_Variant>  (328) 
93:0-1

>  <s_i_glide_gridfile>  (328) 
pfpi4k_grid

>  <i_i_glide_lignum>  (328) 
2

>  <i_i_glide_rotatable_bonds>  (328) 
5

>  <r_i_docking_score>  (328) 
-2.00954

>  <r_i_glide_ligand_efficiency>  (328) 
-0.0543119

>  <r_i_glide_ligand_efficiency_sa>  (328) 
-0.180979

>  <r_i_glide_ligand_efficiency_ln>  (328) 
-0.435822

>  <r_i_glide_gscore>  (328) 
-2.00954

>  <r_i_glide_lipo>  (328) 
-0.272761

>  <r_i_glide_hbond>  (328) 
-0.0256279

>  <r_i_glide_metal>  (328) 
-0

>  <r_i_glide_rewards>  (328) 
0

>  <r_i_glide_evdw>  (328) 
-26.8919

>  <r_i_glide_ecoul>  (328) 
-2.65439

>  <r_i_glide_erotb>  (328) 
0.0534436

>  <r_i_glide_esite>  (328) 
-0.0218396

>  <r_i_glide_emodel>  (328) 
-33.4887

>  <r_i_glide_energy>  (328) 
-29.5463

>  <r_i_glide_einternal>  (328) 
1.15262

>  <r_i_glide_intrahb_reward>  (328) 
-0

>  <i_i_glide_confnum>  (328) 
1

>  <i_i_glide_posenum>  (328) 
17

>  <r_i_glide_eff_state_penalty>  (328) 
0

>  <ligand_id>  (328) 
93

>  <original_smiles>  (328) 
COC(=O)C1=CC2(C)C(C)(CCC34C5COC3C3(C)CCCC(C)(C)C(OC3)C4(O)C2(C)C(O)C5)C1O

>  <smiles>  (328) 
[H]OC1([H])C(C(=O)OC([H])([H])[H])=C([H])C2(C([H])([H])[H])C1(C([H])([H])[H])C([H])([H])C([H])([H])C13C4([H])OC([H])([H])C1([H])C([H])([H])C([H])(O[H])C2(C([H])([H])[H])C3(O[H])C1([H])OC([H])([H])C4(C([H])([H])[H])C([H])([H])C([H])([H])C([H])([H])C1(C([H])([H])[H])C([H])([H])[H]

$$$$
94:0:0
     RDKit          3D

 71 76  0  0  1  0  0  0  0  0999 V2000
    2.7449   -8.9737    1.5154 C   0  0  0  0  0  0  0  0  0  0  0  0
    3.0760   -8.6646    2.8762 O   0  0  0  0  0  0  0  0  0  0  0  0
    2.3138   -9.2173    3.9568 C   0  0  2  0  0  0  0  0  0  0  0  0
    1.6418  -10.5641    3.6207 C   0  0  0  0  0  0  0  0  0  0  0  0
    0.5662  -10.3500    2.6677 O   0  0  0  0  0  0  0  0  0  0  0  0
   -0.4345   -9.3759    3.0590 C   0  0  0  0  0  0  0  0  0  0  0  0
    0.2210   -8.0248    3.4019 C   0  0  1  0  0  0  0  0  0  0  0  0
   -0.5742   -7.0258    4.0782 O   0  0  0  0  0  0  0  0  0  0  0  0
    0.3785   -6.1973    4.7646 C   0  0  2  0  0  0  0  0  0  0  0  0
   -0.2656   -5.8490    6.1249 C   0  0  0  0  0  0  0  0  0  0  0  0
    0.3494   -4.6147    6.7928 C   0  0  0  0  0  0  0  0  0  0  0  0
    0.3825   -3.4737    5.7739 C   0  0  1  0  0  0  0  0  0  0  0  0
    0.7633   -2.1948    6.3309 O   0  0  0  0  0  0  0  0  0  0  0  0
    0.6112   -1.0268    5.4769 C   0  0  1  0  0  0  0  0  0  0  0  0
   -0.9263   -0.9423    5.2292 C   0  0  0  0  0  0  0  0  0  0  0  0
    1.0294    0.2170    6.3130 C   0  0  0  0  0  0  0  0  0  0  0  0
    0.8191    1.6625    5.7432 C   0  0  0  0  0  0  0  0  0  0  0  0
    1.0144    1.9797    4.2328 C   0  0  2  0  0  0  0  0  0  0  0  0
   -0.1142    1.4360    3.3803 C   0  0  0  0  0  0  0  0  0  0  0  0
    0.2296    0.3347    2.7705 C   0  0  0  0  0  0  0  0  0  0  0  0
    1.6319   -0.1091    3.1233 C   0  0  1  0  0  0  0  0  0  0  0  0
    2.2973   -0.6051    1.9722 O   0  0  0  0  0  0  0  0  0  0  0  0
    2.2214    1.3117    3.5324 C   0  0  0  0  0  0  0  0  0  0  0  0
    2.5313    2.1444    2.2517 C   0  0  0  0  0  0  0  0  0  0  0  0
    3.5471    1.3900    4.3309 C   0  0  0  0  0  0  0  0  0  0  0  0
    1.5520   -1.2746    4.2125 C   0  0  1  0  0  0  0  0  0  0  0  0
    2.8887   -1.3585    4.6688 O   0  0  0  0  0  0  0  0  0  0  0  0
    1.2458   -2.6964    3.5951 C   0  0  0  0  0  0  0  0  0  0  0  0
    1.2717   -3.8884    4.5949 C   0  0  1  0  0  0  0  0  0  0  0  0
    2.7270   -4.2467    5.0131 C   0  0  0  0  0  0  0  0  0  0  0  0
    0.6541   -5.0363    3.9735 O   0  0  0  0  0  0  0  0  0  0  0  0
    1.5705   -6.9708    4.9555 O   0  0  0  0  0  0  0  0  0  0  0  0
    1.2259   -8.2909    4.4937 C   0  0  2  0  0  0  0  0  0  0  0  0
    3.4455   -8.4428    0.8449 H   0  0  0  0  0  0  0  0  0  0  0  0
    1.7332   -8.6509    1.2768 H   0  0  0  0  0  0  0  0  0  0  0  0
    2.8787  -10.0394    1.2921 H   0  0  0  0  0  0  0  0  0  0  0  0
    3.0089   -9.3974    4.7645 H   0  0  0  0  0  0  0  0  0  0  0  0
    2.3409  -11.2433    3.1418 H   0  0  0  0  0  0  0  0  0  0  0  0
    1.2701  -11.0995    4.5145 H   0  0  0  0  0  0  0  0  0  0  0  0
   -1.0693   -9.2874    2.1862 H   0  0  0  0  0  0  0  0  0  0  0  0
   -1.0065   -9.8012    3.8763 H   0  0  0  0  0  0  0  0  0  0  0  0
    0.6791   -7.5609    2.5387 H   0  0  0  0  0  0  0  0  0  0  0  0
   -1.3153   -5.6701    5.9294 H   0  0  0  0  0  0  0  0  0  0  0  0
   -0.2045   -6.7231    6.7602 H   0  0  0  0  0  0  0  0  0  0  0  0
   -0.2773   -4.3203    7.6278 H   0  0  0  0  0  0  0  0  0  0  0  0
    1.3343   -4.8215    7.2121 H   0  0  0  0  0  0  0  0  0  0  0  0
   -0.6386   -3.3948    5.4077 H   0  0  0  0  0  0  0  0  0  0  0  0
   -1.3019    0.0716    5.1172 H   0  0  0  0  0  0  0  0  0  0  0  0
   -1.4692   -1.3353    6.0861 H   0  0  0  0  0  0  0  0  0  0  0  0
   -1.2453   -1.5053    4.3552 H   0  0  0  0  0  0  0  0  0  0  0  0
    0.4670    0.1809    7.2460 H   0  0  0  0  0  0  0  0  0  0  0  0
    2.0587    0.0988    6.6430 H   0  0  0  0  0  0  0  0  0  0  0  0
   -0.1773    2.0126    6.0243 H   0  0  0  0  0  0  0  0  0  0  0  0
    1.4972    2.3189    6.2938 H   0  0  0  0  0  0  0  0  0  0  0  0
    1.0397    3.0611    4.0980 H   0  0  0  0  0  0  0  0  0  0  0  0
   -1.0784    1.9411    3.3097 H   0  0  0  0  0  0  0  0  0  0  0  0
   -0.3953   -0.2386    2.0907 H   0  0  0  0  0  0  0  0  0  0  0  0
    1.8108   -0.3497    1.1903 H   0  0  0  0  0  0  0  0  0  0  0  0
    3.3732    1.7136    1.7110 H   0  0  0  0  0  0  0  0  0  0  0  0
    2.7964    3.1759    2.4905 H   0  0  0  0  0  0  0  0  0  0  0  0
    1.6967    2.2029    1.5528 H   0  0  0  0  0  0  0  0  0  0  0  0
    4.3392    0.8399    3.8201 H   0  0  0  0  0  0  0  0  0  0  0  0
    3.4808    1.0040    5.3423 H   0  0  0  0  0  0  0  0  0  0  0  0
    3.8897    2.4232    4.4264 H   0  0  0  0  0  0  0  0  0  0  0  0
    3.4387   -1.4716    3.9070 H   0  0  0  0  0  0  0  0  0  0  0  0
    0.2602   -2.6490    3.1274 H   0  0  0  0  0  0  0  0  0  0  0  0
    1.9419   -2.9144    2.7896 H   0  0  0  0  0  0  0  0  0  0  0  0
    3.1638   -3.5090    5.6841 H   0  0  0  0  0  0  0  0  0  0  0  0
    3.3781   -4.3430    4.1428 H   0  0  0  0  0  0  0  0  0  0  0  0
    2.8089   -5.1723    5.5733 H   0  0  0  0  0  0  0  0  0  0  0  0
    0.7229   -8.7640    5.3479 H   0  0  0  0  0  0  0  0  0  0  0  0
  1  2  1  0
  1 34  1  0
  1 35  1  0
  1 36  1  0
  2  3  1  0
  3 33  1  0
  3  4  1  0
  3 37  1  1
  4  5  1  0
  4 38  1  0
  4 39  1  0
  5  6  1  0
  6  7  1  0
  6 40  1  0
  6 41  1  0
  7 33  1  0
  7  8  1  0
  7 42  1  6
  9  8  1  6
  9 31  1  0
  9 10  1  0
  9 32  1  0
 10 11  1  0
 10 43  1  0
 10 44  1  0
 11 12  1  0
 11 45  1  0
 11 46  1  0
 12 29  1  0
 12 13  1  0
 12 47  1  6
 13 14  1  0
 14 26  1  0
 14 15  1  6
 14 16  1  0
 15 48  1  0
 15 49  1  0
 15 50  1  0
 16 17  1  0
 16 51  1  0
 16 52  1  0
 17 18  1  0
 17 53  1  0
 17 54  1  0
 18 23  1  0
 18 19  1  0
 18 55  1  1
 19 20  2  0
 19 56  1  0
 20 21  1  0
 20 57  1  0
 21 22  1  6
 21 23  1  0
 21 26  1  0
 22 58  1  0
 23 24  1  0
 23 25  1  0
 24 59  1  0
 24 60  1  0
 24 61  1  0
 25 62  1  0
 25 63  1  0
 25 64  1  0
 26 27  1  1
 26 28  1  0
 27 65  1  0
 28 29  1  0
 28 66  1  0
 28 67  1  0
 29 30  1  1
 29 31  1  0
 30 68  1  0
 30 69  1  0
 30 70  1  0
 32 33  1  0
 33 71  1  1
M  END
>  <i_m_ct_stereo_status>  (329) 
1

>  <s_m_source_file>  (329) 
/var/tmp/pbs.5083858.sched01/tmpwjm1f1st/135fnrmq3q8.sdf

>  <i_m_source_file_index>  (329) 
3

>  <i_lp_mmshare_version>  (329) 
48012

>  <i_f3d_flags>  (329) 
0

>  <s_epik_input>  (329) 
W0NIMl0xT1tDSDJdW0NAQEhdKE9bQ0gzXSlbQ0BASF0oTzIpW0NAQEhdMU9bQ0BAXTIzW0NIMl1bQ0gyXVtDQEBIXTRbQ0BdKE8zKShbQ0gzXSlbQ0gyXVtDQF01KFtPSF0pW0NAXShPNCkoW0NIM10pW0NIMl1bQ0gyXVtDQEBIXTZbQ0hdPVtDSF1bQ0BAXTUoW09IXSlDNihbQ0gzXSlbQ0gzXQ==

>  <s_epik_cmdline>  (329) 
J2VwaWtfcHl0aG9uJywgJy1waHQnLCAnMi4wJywgJy1waCcsICc3LjAnLCAnLXRuJywgJzgnLCAnLW1hJywgJzIwMCcsICctaW1hZScsICc8aW5maWxlLm1hZT4nLCAnLW9tYWUnLCAnPG91dGZpbGUubWFlPic=

>  <r_lp_tautomer_probability>  (329) 
1

>  <r_epik_Ionization_Penalty>  (329) 
7.32252e-08

>  <r_epik_Ionization_Penalty_Charging>  (329) 
0

>  <r_epik_Ionization_Penalty_Neutral>  (329) 
7.32252e-08

>  <r_epik_State_Penalty>  (329) 
-0

>  <r_epik_Charging_Adjusted_Penalty>  (329) 
0

>  <i_epik_Tot_Q>  (329) 
0

>  <i_epik_Tot_abs_Q>  (329) 
0

>  <s_lp_Force_Field>  (329) 
OPLS3e

>  <r_lp_Energy>  (329) 
65.8527

>  <b_lp_Chiralities_Consistent>  (329) 
1

>  <s_lp_Variant>  (329) 
94:0-1

>  <s_i_glide_gridfile>  (329) 
pfpi4k_grid

>  <i_i_glide_lignum>  (329) 
3

>  <i_i_glide_rotatable_bonds>  (329) 
3

>  <r_i_docking_score>  (329) 
-1.96881

>  <r_i_glide_ligand_efficiency>  (329) 
-0.0596608

>  <r_i_glide_ligand_efficiency_sa>  (329) 
-0.191364

>  <r_i_glide_ligand_efficiency_ln>  (329) 
-0.437853

>  <r_i_glide_gscore>  (329) 
-1.96881

>  <r_i_glide_lipo>  (329) 
-0.128824

>  <r_i_glide_hbond>  (329) 
0

>  <r_i_glide_metal>  (329) 
-0

>  <r_i_glide_rewards>  (329) 
-0.22797

>  <r_i_glide_evdw>  (329) 
-23.6959

>  <r_i_glide_ecoul>  (329) 
-2.74125

>  <r_i_glide_erotb>  (329) 
0

>  <r_i_glide_esite>  (329) 
-0.0160287

>  <r_i_glide_emodel>  (329) 
-23.0349

>  <r_i_glide_energy>  (329) 
-26.4372

>  <r_i_glide_einternal>  (329) 
11.1862

>  <r_i_glide_intrahb_reward>  (329) 
-0

>  <i_i_glide_confnum>  (329) 
1

>  <i_i_glide_posenum>  (329) 
16

>  <r_i_glide_eff_state_penalty>  (329) 
0

>  <ligand_id>  (329) 
94

>  <original_smiles>  (329) 
COC1COCC2OC3(CCC4OC5(C)CCC6C=CC(O)(C6(C)C)C5(O)CC4(C)O3)OC12

>  <smiles>  (329) 
[H]OC12C([H])=C([H])C([H])(C([H])([H])C([H])([H])C3(C([H])([H])[H])OC4([H])C([H])([H])C([H])([H])C5(OC6([H])C([H])([H])OC([H])([H])C([H])(OC([H])([H])[H])C6([H])O5)OC4(C([H])([H])[H])C([H])([H])C13O[H])C2(C([H])([H])[H])C([H])([H])[H]

$$$$
94:0:1
     RDKit          3D

 71 76  0  0  1  0  0  0  0  0999 V2000
    1.3467   -7.0235    1.4167 C   0  0  0  0  0  0  0  0  0  0  0  0
    2.2434   -5.9917    1.8218 O   0  0  0  0  0  0  0  0  0  0  0  0
    3.2853   -5.6868    0.8907 C   0  0  2  0  0  0  0  0  0  0  0  0
    4.3752   -6.7853    0.8991 C   0  0  0  0  0  0  0  0  0  0  0  0
    5.1080   -6.7931    2.1345 O   0  0  0  0  0  0  0  0  0  0  0  0
    5.7234   -5.5572    2.4977 C   0  0  0  0  0  0  0  0  0  0  0  0
    4.6300   -4.4911    2.5977 C   0  0  1  0  0  0  0  0  0  0  0  0
    5.0163   -3.1369    2.7287 O   0  0  0  0  0  0  0  0  0  0  0  0
    3.9428   -2.3625    2.2478 C   0  0  2  0  0  0  0  0  0  0  0  0
    4.5784   -1.1727    1.4818 C   0  0  0  0  0  0  0  0  0  0  0  0
    3.6027    0.0039    1.2691 C   0  0  0  0  0  0  0  0  0  0  0  0
    2.9757    0.3781    2.6179 C   0  0  1  0  0  0  0  0  0  0  0  0
    2.1568    1.5713    2.6108 O   0  0  0  0  0  0  0  0  0  0  0  0
    1.7291    2.0908    3.8986 C   0  0  1  0  0  0  0  0  0  0  0  0
    3.0591    2.4697    4.6199 C   0  0  0  0  0  0  0  0  0  0  0  0
    0.9588    3.4144    3.6268 C   0  0  0  0  0  0  0  0  0  0  0  0
    0.4927    4.3185    4.8198 C   0  0  0  0  0  0  0  0  0  0  0  0
    0.0019    3.7021    6.1653 C   0  0  2  0  0  0  0  0  0  0  0  0
    1.1421    3.1512    6.9799 C   0  0  0  0  0  0  0  0  0  0  0  0
    1.2167    1.8215    6.8817 C   0  0  0  0  0  0  0  0  0  0  0  0
    0.1527    1.2843    5.9634 C   0  0  1  0  0  0  0  0  0  0  0  0
   -0.3868    0.1008    6.5433 O   0  0  0  0  0  0  0  0  0  0  0  0
   -0.9147    2.4584    6.0690 C   0  0  0  0  0  0  0  0  0  0  0  0
   -1.6998    2.3626    7.4210 C   0  0  0  0  0  0  0  0  0  0  0  0
   -2.0411    2.5798    5.0150 C   0  0  0  0  0  0  0  0  0  0  0  0
    0.8230    0.9526    4.5520 C   0  0  1  0  0  0  0  0  0  0  0  0
   -0.2853    0.7801    3.6908 O   0  0  0  0  0  0  0  0  0  0  0  0
    1.6142   -0.4105    4.5259 C   0  0  0  0  0  0  0  0  0  0  0  0
    2.2074   -0.8355    3.1485 C   0  0  1  0  0  0  0  0  0  0  0  0
    1.0882   -1.3081    2.1845 C   0  0  0  0  0  0  0  0  0  0  0  0
    3.1362   -1.9285    3.3356 O   0  0  0  0  0  0  0  0  0  0  0  0
    3.2307   -3.1883    1.3652 O   0  0  0  0  0  0  0  0  0  0  0  0
    3.9932   -4.3828    1.2564 C   0  0  2  0  0  0  0  0  0  0  0  0
    0.5677   -7.1479    2.1707 H   0  0  0  0  0  0  0  0  0  0  0  0
    1.8234   -7.9979    1.2971 H   0  0  0  0  0  0  0  0  0  0  0  0
    0.8625   -6.7628    0.4760 H   0  0  0  0  0  0  0  0  0  0  0  0
    2.8775   -5.6039   -0.1107 H   0  0  0  0  0  0  0  0  0  0  0  0
    3.9818   -7.7921    0.7898 H   0  0  0  0  0  0  0  0  0  0  0  0
    5.0819   -6.6579    0.0735 H   0  0  0  0  0  0  0  0  0  0  0  0
    6.1815   -5.7666    3.4548 H   0  0  0  0  0  0  0  0  0  0  0  0
    6.5174   -5.3373    1.7774 H   0  0  0  0  0  0  0  0  0  0  0  0
    3.9166   -4.7293    3.3815 H   0  0  0  0  0  0  0  0  0  0  0  0
    5.4249   -0.8171    2.0556 H   0  0  0  0  0  0  0  0  0  0  0  0
    4.9725   -1.5185    0.5289 H   0  0  0  0  0  0  0  0  0  0  0  0
    4.1418    0.8756    0.8866 H   0  0  0  0  0  0  0  0  0  0  0  0
    2.8395   -0.2054    0.5110 H   0  0  0  0  0  0  0  0  0  0  0  0
    3.8235    0.5501    3.2716 H   0  0  0  0  0  0  0  0  0  0  0  0
    2.9809    3.3224    5.2899 H   0  0  0  0  0  0  0  0  0  0  0  0
    3.8036    2.7801    3.8892 H   0  0  0  0  0  0  0  0  0  0  0  0
    3.4836    1.6480    5.1924 H   0  0  0  0  0  0  0  0  0  0  0  0
    1.6002    4.0437    3.0069 H   0  0  0  0  0  0  0  0  0  0  0  0
    0.1191    3.2267    2.9627 H   0  0  0  0  0  0  0  0  0  0  0  0
    1.2892    5.0287    5.0540 H   0  0  0  0  0  0  0  0  0  0  0  0
   -0.3152    4.9442    4.4369 H   0  0  0  0  0  0  0  0  0  0  0  0
   -0.4719    4.4890    6.7568 H   0  0  0  0  0  0  0  0  0  0  0  0
    1.8019    3.7703    7.5641 H   0  0  0  0  0  0  0  0  0  0  0  0
    1.9405    1.2018    7.3844 H   0  0  0  0  0  0  0  0  0  0  0  0
    0.2068   -0.5987    6.3518 H   0  0  0  0  0  0  0  0  0  0  0  0
   -2.3917    1.5188    7.4310 H   0  0  0  0  0  0  0  0  0  0  0  0
   -2.3020    3.2547    7.6008 H   0  0  0  0  0  0  0  0  0  0  0  0
   -1.0513    2.2491    8.2909 H   0  0  0  0  0  0  0  0  0  0  0  0
   -2.5851    1.6397    4.9311 H   0  0  0  0  0  0  0  0  0  0  0  0
   -1.6943    2.8363    4.0205 H   0  0  0  0  0  0  0  0  0  0  0  0
   -2.7645    3.3501    5.2913 H   0  0  0  0  0  0  0  0  0  0  0  0
   -0.1433    1.3273    2.9351 H   0  0  0  0  0  0  0  0  0  0  0  0
    2.4299   -0.3599    5.2510 H   0  0  0  0  0  0  0  0  0  0  0  0
    0.9668   -1.2183    4.8518 H   0  0  0  0  0  0  0  0  0  0  0  0
    0.4770   -0.4913    1.8014 H   0  0  0  0  0  0  0  0  0  0  0  0
    0.4460   -2.0308    2.6872 H   0  0  0  0  0  0  0  0  0  0  0  0
    1.4575   -1.7786    1.2810 H   0  0  0  0  0  0  0  0  0  0  0  0
    4.7544   -4.1644    0.5044 H   0  0  0  0  0  0  0  0  0  0  0  0
  1  2  1  0
  1 34  1  0
  1 35  1  0
  1 36  1  0
  2  3  1  0
  3 33  1  0
  3  4  1  0
  3 37  1  6
  4  5  1  0
  4 38  1  0
  4 39  1  0
  5  6  1  0
  6  7  1  0
  6 40  1  0
  6 41  1  0
  7 33  1  0
  7  8  1  0
  7 42  1  1
  9  8  1  1
  9 31  1  0
  9 10  1  0
  9 32  1  0
 10 11  1  0
 10 43  1  0
 10 44  1  0
 11 12  1  0
 11 45  1  0
 11 46  1  0
 12 29  1  0
 12 13  1  0
 12 47  1  1
 13 14  1  0
 14 26  1  0
 14 15  1  1
 14 16  1  0
 15 48  1  0
 15 49  1  0
 15 50  1  0
 16 17  1  0
 16 51  1  0
 16 52  1  0
 17 18  1  0
 17 53  1  0
 17 54  1  0
 18 23  1  0
 18 19  1  0
 18 55  1  1
 19 20  2  0
 19 56  1  0
 20 21  1  0
 20 57  1  0
 21 22  1  1
 21 23  1  0
 21 26  1  0
 22 58  1  0
 23 24  1  0
 23 25  1  0
 24 59  1  0
 24 60  1  0
 24 61  1  0
 25 62  1  0
 25 63  1  0
 25 64  1  0
 26 27  1  6
 26 28  1  0
 27 65  1  0
 28 29  1  0
 28 66  1  0
 28 67  1  0
 29 30  1  6
 29 31  1  0
 30 68  1  0
 30 69  1  0
 30 70  1  0
 32 33  1  0
 33 71  1  6
M  END
>  <i_m_ct_stereo_status>  (330) 
1

>  <s_m_source_file>  (330) 
/var/tmp/pbs.5083858.sched01/tmpwjm1f1st/135fnrmq3q8.sdf

>  <i_m_source_file_index>  (330) 
3

>  <i_lp_mmshare_version>  (330) 
48012

>  <i_f3d_flags>  (330) 
0

>  <s_epik_input>  (330) 
W0NIMl0xT1tDSDJdW0NAQEhdKE9bQ0gzXSlbQ0BASF0oTzIpW0NAQEhdMU9bQ0BAXTIzW0NIMl1bQ0gyXVtDQEBIXTRbQ0BdKE8zKShbQ0gzXSlbQ0gyXVtDQF01KFtPSF0pW0NAXShPNCkoW0NIM10pW0NIMl1bQ0gyXVtDQEBIXTZbQ0hdPVtDSF1bQ0BAXTUoW09IXSlDNihbQ0gzXSlbQ0gzXQ==

>  <s_epik_cmdline>  (330) 
J2VwaWtfcHl0aG9uJywgJy1waHQnLCAnMi4wJywgJy1waCcsICc3LjAnLCAnLXRuJywgJzgnLCAnLW1hJywgJzIwMCcsICctaW1hZScsICc8aW5maWxlLm1hZT4nLCAnLW9tYWUnLCAnPG91dGZpbGUubWFlPic=

>  <r_lp_tautomer_probability>  (330) 
1

>  <r_epik_Ionization_Penalty>  (330) 
7.32252e-08

>  <r_epik_Ionization_Penalty_Charging>  (330) 
0

>  <r_epik_Ionization_Penalty_Neutral>  (330) 
7.32252e-08

>  <r_epik_State_Penalty>  (330) 
-0

>  <r_epik_Charging_Adjusted_Penalty>  (330) 
0

>  <i_epik_Tot_Q>  (330) 
0

>  <i_epik_Tot_abs_Q>  (330) 
0

>  <s_lp_Force_Field>  (330) 
OPLS3e

>  <r_lp_Energy>  (330) 
65.8527

>  <b_lp_Chiralities_Consistent>  (330) 
1

>  <s_lp_Variant>  (330) 
94:0-1

>  <s_i_glide_gridfile>  (330) 
pfpi4k_grid

>  <i_i_glide_lignum>  (330) 
3

>  <i_i_glide_rotatable_bonds>  (330) 
3

>  <r_i_docking_score>  (330) 
-1.86523

>  <r_i_glide_ligand_efficiency>  (330) 
-0.056522

>  <r_i_glide_ligand_efficiency_sa>  (330) 
-0.181296

>  <r_i_glide_ligand_efficiency_ln>  (330) 
-0.414817

>  <r_i_glide_gscore>  (330) 
-1.86523

>  <r_i_glide_lipo>  (330) 
-0.258556

>  <r_i_glide_hbond>  (330) 
0

>  <r_i_glide_metal>  (330) 
-0

>  <r_i_glide_rewards>  (330) 
-0.22797

>  <r_i_glide_evdw>  (330) 
-23.1644

>  <r_i_glide_ecoul>  (330) 
-1.46765

>  <r_i_glide_erotb>  (330) 
0

>  <r_i_glide_esite>  (330) 
-0.000331508

>  <r_i_glide_emodel>  (330) 
-26.5712

>  <r_i_glide_energy>  (330) 
-24.6321

>  <r_i_glide_einternal>  (330) 
1.31464

>  <r_i_glide_intrahb_reward>  (330) 
-0

>  <i_i_glide_confnum>  (330) 
1

>  <i_i_glide_posenum>  (330) 
12

>  <r_i_glide_eff_state_penalty>  (330) 
0

>  <ligand_id>  (330) 
94

>  <original_smiles>  (330) 
COC1COCC2OC3(CCC4OC5(C)CCC6C=CC(O)(C6(C)C)C5(O)CC4(C)O3)OC12

>  <smiles>  (330) 
[H]OC12C([H])=C([H])C([H])(C([H])([H])C([H])([H])C3(C([H])([H])[H])OC4([H])C([H])([H])C([H])([H])C5(OC6([H])C([H])([H])OC([H])([H])C([H])(OC([H])([H])[H])C6([H])O5)OC4(C([H])([H])[H])C([H])([H])C13O[H])C2(C([H])([H])[H])C([H])([H])[H]

$$$$
94:0:2
     RDKit          3D

 71 76  0  0  1  0  0  0  0  0999 V2000
    2.3698   -3.6792   -1.0120 C   0  0  0  0  0  0  0  0  0  0  0  0
    2.7973   -4.6844   -0.1058 O   0  0  0  0  0  0  0  0  0  0  0  0
    4.2071   -4.6919    0.1031 C   0  0  2  0  0  0  0  0  0  0  0  0
    4.6720   -6.1570    0.2035 C   0  0  0  0  0  0  0  0  0  0  0  0
    4.1864   -6.8017    1.3928 O   0  0  0  0  0  0  0  0  0  0  0  0
    4.5165   -6.1439    2.6174 C   0  0  0  0  0  0  0  0  0  0  0  0
    3.9383   -4.7267    2.5633 C   0  0  1  0  0  0  0  0  0  0  0  0
    4.2950   -3.8073    3.5790 O   0  0  0  0  0  0  0  0  0  0  0  0
    4.1203   -2.5184    3.0237 C   0  0  2  0  0  0  0  0  0  0  0  0
    5.2929   -1.6667    3.5511 C   0  0  0  0  0  0  0  0  0  0  0  0
    5.0610   -0.1534    3.4300 C   0  0  0  0  0  0  0  0  0  0  0  0
    3.7037    0.1732    4.0556 C   0  0  1  0  0  0  0  0  0  0  0  0
    3.4205    1.5868    4.1837 O   0  0  0  0  0  0  0  0  0  0  0  0
    2.2466    1.9587    4.9537 C   0  0  1  0  0  0  0  0  0  0  0  0
    2.5825    1.4671    6.3961 C   0  0  0  0  0  0  0  0  0  0  0  0
    2.1880    3.5126    4.9913 C   0  0  0  0  0  0  0  0  0  0  0  0
    1.1383    4.2466    5.8977 C   0  0  0  0  0  0  0  0  0  0  0  0
   -0.2994    3.6783    6.1002 C   0  0  2  0  0  0  0  0  0  0  0  0
   -0.3093    2.4741    7.0071 C   0  0  0  0  0  0  0  0  0  0  0  0
   -0.4034    1.3388    6.3114 C   0  0  0  0  0  0  0  0  0  0  0  0
   -0.4381    1.6120    4.8276 C   0  0  1  0  0  0  0  0  0  0  0  0
   -1.3839    0.7549    4.2261 O   0  0  0  0  0  0  0  0  0  0  0  0
   -0.9992    3.1002    4.8465 C   0  0  0  0  0  0  0  0  0  0  0  0
   -2.5359    3.1094    5.1410 C   0  0  0  0  0  0  0  0  0  0  0  0
   -0.8831    3.9844    3.5812 C   0  0  0  0  0  0  0  0  0  0  0  0
    0.9977    1.3076    4.2098 C   0  0  1  0  0  0  0  0  0  0  0  0
    0.9272    1.8931    2.9227 O   0  0  0  0  0  0  0  0  0  0  0  0
    1.2711   -0.2297    3.9756 C   0  0  0  0  0  0  0  0  0  0  0  0
    2.6158   -0.5765    3.2754 C   0  0  1  0  0  0  0  0  0  0  0  0
    2.5862   -0.2070    1.7619 C   0  0  0  0  0  0  0  0  0  0  0  0
    2.8573   -1.9929    3.4012 O   0  0  0  0  0  0  0  0  0  0  0  0
    4.2276   -2.6620    1.6270 O   0  0  0  0  0  0  0  0  0  0  0  0
    4.5903   -4.0215    1.4178 C   0  0  2  0  0  0  0  0  0  0  0  0
    1.2816   -3.6744   -1.1092 H   0  0  0  0  0  0  0  0  0  0  0  0
    2.7742   -3.8520   -2.0101 H   0  0  0  0  0  0  0  0  0  0  0  0
    2.6939   -2.6950   -0.6684 H   0  0  0  0  0  0  0  0  0  0  0  0
    4.7501   -4.2539   -0.7299 H   0  0  0  0  0  0  0  0  0  0  0  0
    4.3042   -6.7577   -0.6253 H   0  0  0  0  0  0  0  0  0  0  0  0
    5.7659   -6.2231    0.1849 H   0  0  0  0  0  0  0  0  0  0  0  0
    4.0353   -6.7539    3.3707 H   0  0  0  0  0  0  0  0  0  0  0  0
    5.6000   -6.1892    2.7702 H   0  0  0  0  0  0  0  0  0  0  0  0
    2.8559   -4.7440    2.4798 H   0  0  0  0  0  0  0  0  0  0  0  0
    5.4517   -1.9211    4.5904 H   0  0  0  0  0  0  0  0  0  0  0  0
    6.1734   -1.9524    2.9944 H   0  0  0  0  0  0  0  0  0  0  0  0
    5.8338    0.3925    3.9720 H   0  0  0  0  0  0  0  0  0  0  0  0
    5.1333    0.1937    2.3959 H   0  0  0  0  0  0  0  0  0  0  0  0
    3.7575   -0.2474    5.0551 H   0  0  0  0  0  0  0  0  0  0  0  0
    2.1592    2.0820    7.1880 H   0  0  0  0  0  0  0  0  0  0  0  0
    3.6561    1.5114    6.5711 H   0  0  0  0  0  0  0  0  0  0  0  0
    2.2626    0.4435    6.5783 H   0  0  0  0  0  0  0  0  0  0  0  0
    3.1655    3.8624    5.3253 H   0  0  0  0  0  0  0  0  0  0  0  0
    2.1307    3.8984    3.9751 H   0  0  0  0  0  0  0  0  0  0  0  0
    1.5727    4.4020    6.8879 H   0  0  0  0  0  0  0  0  0  0  0  0
    1.0294    5.2547    5.4927 H   0  0  0  0  0  0  0  0  0  0  0  0
   -0.9153    4.4487    6.5715 H   0  0  0  0  0  0  0  0  0  0  0  0
   -0.2423    2.5480    8.0819 H   0  0  0  0  0  0  0  0  0  0  0  0
   -0.4356    0.3479    6.7255 H   0  0  0  0  0  0  0  0  0  0  0  0
   -1.6191    1.1217    3.3815 H   0  0  0  0  0  0  0  0  0  0  0  0
   -3.1206    2.7422    4.2943 H   0  0  0  0  0  0  0  0  0  0  0  0
   -2.8897    4.1196    5.3464 H   0  0  0  0  0  0  0  0  0  0  0  0
   -2.8187    2.5130    6.0084 H   0  0  0  0  0  0  0  0  0  0  0  0
   -1.3279    3.4918    2.7168 H   0  0  0  0  0  0  0  0  0  0  0  0
    0.1360    4.2414    3.3115 H   0  0  0  0  0  0  0  0  0  0  0  0
   -1.3997    4.9372    3.7087 H   0  0  0  0  0  0  0  0  0  0  0  0
    0.2241    1.5042    2.4263 H   0  0  0  0  0  0  0  0  0  0  0  0
    1.2327   -0.7420    4.9389 H   0  0  0  0  0  0  0  0  0  0  0  0
    0.4773   -0.6663    3.3793 H   0  0  0  0  0  0  0  0  0  0  0  0
    2.6204    0.8683    1.5883 H   0  0  0  0  0  0  0  0  0  0  0  0
    1.6925   -0.5973    1.2756 H   0  0  0  0  0  0  0  0  0  0  0  0
    3.4368   -0.5732    1.1959 H   0  0  0  0  0  0  0  0  0  0  0  0
    5.6755   -4.0574    1.5369 H   0  0  0  0  0  0  0  0  0  0  0  0
  1  2  1  0
  1 34  1  0
  1 35  1  0
  1 36  1  0
  2  3  1  0
  3 33  1  0
  3  4  1  0
  3 37  1  6
  4  5  1  0
  4 38  1  0
  4 39  1  0
  5  6  1  0
  6  7  1  0
  6 40  1  0
  6 41  1  0
  7 33  1  0
  7  8  1  0
  7 42  1  6
  9  8  1  1
  9 31  1  0
  9 10  1  0
  9 32  1  0
 10 11  1  0
 10 43  1  0
 10 44  1  0
 11 12  1  0
 11 45  1  0
 11 46  1  0
 12 29  1  0
 12 13  1  0
 12 47  1  1
 13 14  1  0
 14 26  1  0
 14 15  1  1
 14 16  1  0
 15 48  1  0
 15 49  1  0
 15 50  1  0
 16 17  1  0
 16 51  1  0
 16 52  1  0
 17 18  1  0
 17 53  1  0
 17 54  1  0
 18 23  1  0
 18 19  1  0
 18 55  1  1
 19 20  2  0
 19 56  1  0
 20 21  1  0
 20 57  1  0
 21 22  1  6
 21 23  1  0
 21 26  1  0
 22 58  1  0
 23 24  1  0
 23 25  1  0
 24 59  1  0
 24 60  1  0
 24 61  1  0
 25 62  1  0
 25 63  1  0
 25 64  1  0
 26 27  1  6
 26 28  1  0
 27 65  1  0
 28 29  1  0
 28 66  1  0
 28 67  1  0
 29 30  1  6
 29 31  1  0
 30 68  1  0
 30 69  1  0
 30 70  1  0
 32 33  1  0
 33 71  1  1
M  END
>  <i_m_ct_stereo_status>  (331) 
1

>  <s_m_source_file>  (331) 
/var/tmp/pbs.5083858.sched01/tmpwjm1f1st/135fnrmq3q8.sdf

>  <i_m_source_file_index>  (331) 
3

>  <i_lp_mmshare_version>  (331) 
48012

>  <i_f3d_flags>  (331) 
0

>  <s_epik_input>  (331) 
W0NIMl0xT1tDSDJdW0NAQEhdKE9bQ0gzXSlbQ0BASF0oTzIpW0NAQEhdMU9bQ0BAXTIzW0NIMl1bQ0gyXVtDQEBIXTRbQ0BdKE8zKShbQ0gzXSlbQ0gyXVtDQF01KFtPSF0pW0NAXShPNCkoW0NIM10pW0NIMl1bQ0gyXVtDQEBIXTZbQ0hdPVtDSF1bQ0BAXTUoW09IXSlDNihbQ0gzXSlbQ0gzXQ==

>  <s_epik_cmdline>  (331) 
J2VwaWtfcHl0aG9uJywgJy1waHQnLCAnMi4wJywgJy1waCcsICc3LjAnLCAnLXRuJywgJzgnLCAnLW1hJywgJzIwMCcsICctaW1hZScsICc8aW5maWxlLm1hZT4nLCAnLW9tYWUnLCAnPG91dGZpbGUubWFlPic=

>  <r_lp_tautomer_probability>  (331) 
1

>  <r_epik_Ionization_Penalty>  (331) 
7.32252e-08

>  <r_epik_Ionization_Penalty_Charging>  (331) 
0

>  <r_epik_Ionization_Penalty_Neutral>  (331) 
7.32252e-08

>  <r_epik_State_Penalty>  (331) 
-0

>  <r_epik_Charging_Adjusted_Penalty>  (331) 
0

>  <i_epik_Tot_Q>  (331) 
0

>  <i_epik_Tot_abs_Q>  (331) 
0

>  <s_lp_Force_Field>  (331) 
OPLS3e

>  <r_lp_Energy>  (331) 
65.8527

>  <b_lp_Chiralities_Consistent>  (331) 
1

>  <s_lp_Variant>  (331) 
94:0-1

>  <s_i_glide_gridfile>  (331) 
pfpi4k_grid

>  <i_i_glide_lignum>  (331) 
3

>  <i_i_glide_rotatable_bonds>  (331) 
3

>  <r_i_docking_score>  (331) 
-1.61628

>  <r_i_glide_ligand_efficiency>  (331) 
-0.0489781

>  <r_i_glide_ligand_efficiency_sa>  (331) 
-0.157099

>  <r_i_glide_ligand_efficiency_ln>  (331) 
-0.359452

>  <r_i_glide_gscore>  (331) 
-1.61628

>  <r_i_glide_lipo>  (331) 
-0.301828

>  <r_i_glide_hbond>  (331) 
0

>  <r_i_glide_metal>  (331) 
-0

>  <r_i_glide_rewards>  (331) 
-0.228674

>  <r_i_glide_evdw>  (331) 
-22.7195

>  <r_i_glide_ecoul>  (331) 
0.334653

>  <r_i_glide_erotb>  (331) 
0

>  <r_i_glide_esite>  (331) 
0

>  <r_i_glide_emodel>  (331) 
-24.2189

>  <r_i_glide_energy>  (331) 
-22.3848

>  <r_i_glide_einternal>  (331) 
1.03762

>  <r_i_glide_intrahb_reward>  (331) 
-0

>  <i_i_glide_confnum>  (331) 
2

>  <i_i_glide_posenum>  (331) 
36

>  <r_i_glide_eff_state_penalty>  (331) 
0

>  <ligand_id>  (331) 
94

>  <original_smiles>  (331) 
COC1COCC2OC3(CCC4OC5(C)CCC6C=CC(O)(C6(C)C)C5(O)CC4(C)O3)OC12

>  <smiles>  (331) 
[H]OC12C([H])=C([H])C([H])(C([H])([H])C([H])([H])C3(C([H])([H])[H])OC4([H])C([H])([H])C([H])([H])C5(OC6([H])C([H])([H])OC([H])([H])C([H])(OC([H])([H])[H])C6([H])O5)OC4(C([H])([H])[H])C([H])([H])C13O[H])C2(C([H])([H])[H])C([H])([H])[H]

$$$$
95:0:0
     RDKit          3D

 96106  0  0  1  0  0  0  0  0999 V2000
    6.1898   -3.0714   -2.4253 C   0  0  0  0  0  0  0  0  0  0  0  0
    5.3942   -3.6840   -1.4256 O   0  0  0  0  0  0  0  0  0  0  0  0
    5.8695   -3.4367   -0.1077 C   0  0  0  0  0  0  0  0  0  0  0  0
    4.8707   -4.0257    0.9470 C   0  0  2  0  0  0  0  0  0  0  0  0
    4.8653   -5.5633    0.7396 C   0  0  0  0  0  0  0  0  0  0  0  0
    5.7331   -6.1092    1.8905 C   0  0  0  0  0  0  0  0  0  0  0  0
    5.5295   -5.1291    3.0562 C   0  0  2  0  0  0  0  0  0  0  0  0
    4.3742   -5.4947    3.8438 O   0  0  0  0  0  0  0  0  0  0  0  0
    3.0944   -5.8277    3.2243 C   0  0  2  0  0  0  0  0  0  0  0  0
    2.2079   -4.6794    2.6213 C   0  0  2  0  0  0  0  0  0  0  0  0
    2.4423   -4.1940    1.2839 O   0  0  0  0  0  0  0  0  0  0  0  0
    3.4963   -3.3039    0.9135 C   0  0  1  0  0  0  0  0  0  0  0  0
    3.5116   -2.0726    1.6629 O   0  0  0  0  0  0  0  0  0  0  0  0
    4.7871   -1.5504    2.0517 C   0  0  0  0  0  0  0  0  0  0  0  0
    5.7086   -2.4916    2.5911 O   0  0  0  0  0  0  0  0  0  0  0  0
    5.2076   -3.7950    2.4042 C   0  0  1  0  0  0  0  0  0  0  0  0
    1.9105   -3.8004    3.7395 N   0  0  0  0  0  0  0  0  0  0  0  0
    0.9900   -2.6751    3.4942 C   0  0  0  0  0  0  0  0  0  0  0  0
    1.0234   -1.5010    4.5331 C   0  0  2  0  0  0  0  0  0  0  0  0
    2.3518   -0.8154    4.4736 N   0  0  1  0  0  0  0  0  0  0  0  0
    2.3624    0.6684    4.6246 C   0  0  0  0  0  0  0  0  0  0  0  0
    1.6647    1.3862    3.4772 C   0  0  0  0  0  0  0  0  0  0  0  0
    2.4020    1.6401    2.1777 C   0  0  0  0  0  0  0  0  0  0  0  0
    2.0943    2.7909    3.1048 C   0  0  0  0  0  0  0  0  0  0  0  0
    3.4059   -1.4712    5.2867 C   0  0  0  0  0  0  0  0  0  0  0  0
    2.9279   -1.8066    6.7125 C   0  0  0  0  0  0  0  0  0  0  0  0
    1.6604   -2.7176    6.6896 C   0  0  2  0  0  0  0  0  0  0  0  0
    1.2093   -3.0360    8.0881 C   0  0  0  0  0  0  0  0  0  0  0  0
    0.5592   -2.1466    8.9574 C   0  0  0  0  0  0  0  0  0  0  0  0
    0.1753   -2.6539   10.2141 C   0  0  0  0  0  0  0  0  0  0  0  0
    0.4253   -4.0171   10.5221 C   0  0  0  0  0  0  0  0  0  0  0  0
    1.0403   -4.8787    9.5804 C   0  0  0  0  0  0  0  0  0  0  0  0
    1.2203   -6.1998    9.8610 O   0  0  0  0  0  0  0  0  0  0  0  0
    1.4537   -4.3771    8.3316 C   0  0  0  0  0  0  0  0  0  0  0  0
    1.9752   -5.0787    7.2749 O   0  0  0  0  0  0  0  0  0  0  0  0
    2.1114   -4.1582    6.1827 C   0  0  1  0  0  0  0  0  0  0  0  0
    1.5299   -4.7376    4.8373 C   0  0  1  0  0  0  0  0  0  0  0  0
    0.1299   -4.9150    4.8851 O   0  0  0  0  0  0  0  0  0  0  0  0
   -0.4947   -5.6573    5.9483 C   0  0  0  0  0  0  0  0  0  0  0  0
    2.2157   -6.1260    4.4550 C   0  0  1  0  0  0  0  0  0  0  0  0
    1.3248   -7.3430    4.1930 C   0  0  0  0  0  0  0  0  0  0  0  0
    1.1221   -8.4548    5.0696 C   0  0  0  0  0  0  0  0  0  0  0  0
    0.2756   -9.3152    4.4349 C   0  0  0  0  0  0  0  0  0  0  0  0
   -0.0525   -8.8440    3.2075 O   0  0  0  0  0  0  0  0  0  0  0  0
    0.5994   -7.6627    3.0726 C   0  0  0  0  0  0  0  0  0  0  0  0
    0.3162   -0.7640    8.3984 C   0  0  0  0  0  0  0  0  0  0  0  0
    0.0701   -0.6710    6.8693 C   0  0  0  0  0  0  0  0  0  0  0  0
    0.5483   -1.8933    5.9746 C   0  0  1  0  0  0  0  0  0  0  0  0
   -0.6588   -2.6205    5.8515 O   0  0  0  0  0  0  0  0  0  0  0  0
    5.7824   -3.2923   -3.4109 H   0  0  0  0  0  0  0  0  0  0  0  0
    7.2152   -3.4370   -2.3927 H   0  0  0  0  0  0  0  0  0  0  0  0
    6.2018   -1.9880   -2.3106 H   0  0  0  0  0  0  0  0  0  0  0  0
    6.8467   -3.9108    0.0218 H   0  0  0  0  0  0  0  0  0  0  0  0
    6.0372   -2.3671   -0.0329 H   0  0  0  0  0  0  0  0  0  0  0  0
    3.8751   -6.0053    0.7204 H   0  0  0  0  0  0  0  0  0  0  0  0
    5.3022   -5.8616   -0.2146 H   0  0  0  0  0  0  0  0  0  0  0  0
    5.5091   -7.1447    2.1598 H   0  0  0  0  0  0  0  0  0  0  0  0
    6.7803   -6.0848    1.5857 H   0  0  0  0  0  0  0  0  0  0  0  0
    6.4075   -5.0749    3.6986 H   0  0  0  0  0  0  0  0  0  0  0  0
    3.1593   -6.6979    2.5829 H   0  0  0  0  0  0  0  0  0  0  0  0
    1.2492   -5.1324    2.3965 H   0  0  0  0  0  0  0  0  0  0  0  0
    3.2673   -3.0360   -0.1178 H   0  0  0  0  0  0  0  0  0  0  0  0
    5.2267   -0.9788    1.2347 H   0  0  0  0  0  0  0  0  0  0  0  0
    4.6125   -0.8035    2.8242 H   0  0  0  0  0  0  0  0  0  0  0  0
    4.3594   -3.5807    3.0322 H   0  0  0  0  0  0  0  0  0  0  0  0
    1.1746   -2.2589    2.5022 H   0  0  0  0  0  0  0  0  0  0  0  0
   -0.0303   -3.0522    3.4230 H   0  0  0  0  0  0  0  0  0  0  0  0
    0.2550   -0.8251    4.1674 H   0  0  0  0  0  0  0  0  0  0  0  0
    1.9666    1.0435    5.5641 H   0  0  0  0  0  0  0  0  0  0  0  0
    3.4033    1.0115    4.6075 H   0  0  0  0  0  0  0  0  0  0  0  0
    0.5853    1.2205    3.4106 H   0  0  0  0  0  0  0  0  0  0  0  0
    3.4284    1.2822    2.1230 H   0  0  0  0  0  0  0  0  0  0  0  0
    1.8152    1.5354    1.2677 H   0  0  0  0  0  0  0  0  0  0  0  0
    1.3172    3.4789    2.7860 H   0  0  0  0  0  0  0  0  0  0  0  0
    2.9172    3.2326    3.6597 H   0  0  0  0  0  0  0  0  0  0  0  0
    3.7392   -2.3769    4.7912 H   0  0  0  0  0  0  0  0  0  0  0  0
    4.2965   -0.8418    5.3293 H   0  0  0  0  0  0  0  0  0  0  0  0
    3.7474   -2.2837    7.2605 H   0  0  0  0  0  0  0  0  0  0  0  0
    2.7383   -0.8622    7.2313 H   0  0  0  0  0  0  0  0  0  0  0  0
   -0.3248   -2.0291   10.9371 H   0  0  0  0  0  0  0  0  0  0  0  0
    0.1205   -4.4194   11.4770 H   0  0  0  0  0  0  0  0  0  0  0  0
    1.6992   -6.6415    9.1750 H   0  0  0  0  0  0  0  0  0  0  0  0
    3.1916   -4.1522    6.0218 H   0  0  0  0  0  0  0  0  0  0  0  0
   -1.4218   -6.1095    5.5929 H   0  0  0  0  0  0  0  0  0  0  0  0
   -0.7576   -5.0238    6.7917 H   0  0  0  0  0  0  0  0  0  0  0  0
    0.1107   -6.4618    6.3493 H   0  0  0  0  0  0  0  0  0  0  0  0
    2.8531   -6.4313    5.2839 H   0  0  0  0  0  0  0  0  0  0  0  0
    1.5299   -8.6114    6.0588 H   0  0  0  0  0  0  0  0  0  0  0  0
   -0.1767  -10.2609    4.7003 H   0  0  0  0  0  0  0  0  0  0  0  0
    0.4408   -7.2005    2.1137 H   0  0  0  0  0  0  0  0  0  0  0  0
   -0.5117   -0.3059    8.9330 H   0  0  0  0  0  0  0  0  0  0  0  0
    1.1852   -0.1578    8.6600 H   0  0  0  0  0  0  0  0  0  0  0  0
   -0.9948   -0.5033    6.6922 H   0  0  0  0  0  0  0  0  0  0  0  0
    0.5021    0.2770    6.5890 H   0  0  0  0  0  0  0  0  0  0  0  0
   -0.4491   -3.4943    5.5405 H   0  0  0  0  0  0  0  0  0  0  0  0
    2.6378   -0.9669    3.5199 H   0  0  0  0  0  0  0  0  0  0  0  0
  1  2  1  0
  1 50  1  0
  1 51  1  0
  1 52  1  0
  2  3  1  0
  4  3  1  6
  3 53  1  0
  3 54  1  0
  4 12  1  0
  4 16  1  0
  4  5  1  0
  5  6  1  0
  5 55  1  0
  5 56  1  0
  6  7  1  0
  6 57  1  0
  6 58  1  0
  7 16  1  0
  7  8  1  0
  7 59  1  1
  8  9  1  0
  9 40  1  0
  9 10  1  0
  9 60  1  6
 10 11  1  0
 10 17  1  0
 10 61  1  6
 11 12  1  0
 12 13  1  0
 12 62  1  6
 13 14  1  0
 14 15  1  0
 14 63  1  0
 14 64  1  0
 15 16  1  0
 16 65  1  1
 17 37  1  0
 17 18  1  0
 18 19  1  0
 18 66  1  0
 18 67  1  0
 19 48  1  0
 19 20  1  0
 19 68  1  6
 20 21  1  0
 20 25  1  0
 20 96  1  6
 21 22  1  0
 21 69  1  0
 21 70  1  0
 22 24  1  0
 22 23  1  0
 22 71  1  0
 23 24  1  0
 23 72  1  0
 23 73  1  0
 24 74  1  0
 24 75  1  0
 25 26  1  0
 25 76  1  0
 25 77  1  0
 27 26  1  1
 26 78  1  0
 26 79  1  0
 27 36  1  0
 27 48  1  0
 27 28  1  0
 28 34  2  0
 28 29  1  0
 29 30  2  0
 29 46  1  0
 30 31  1  0
 30 80  1  0
 31 32  2  0
 31 81  1  0
 32 33  1  0
 32 34  1  0
 33 82  1  0
 34 35  1  0
 35 36  1  0
 36 37  1  0
 36 83  1  6
 37 38  1  1
 37 40  1  0
 38 39  1  0
 39 84  1  0
 39 85  1  0
 39 86  1  0
 40 41  1  0
 40 87  1  1
 41 45  2  0
 41 42  1  0
 42 43  2  0
 42 88  1  0
 43 44  1  0
 43 89  1  0
 44 45  1  0
 45 90  1  0
 46 47  1  0
 46 91  1  0
 46 92  1  0
 47 48  1  0
 47 93  1  0
 47 94  1  0
 48 49  1  6
 49 95  1  0
M  CHG  1  20   1
M  END
>  <i_m_ct_stereo_status>  (332) 
1

>  <s_m_source_file>  (332) 
/var/tmp/pbs.5083858.sched01/tmpwjm1f1st/135fnrmq3q8.sdf

>  <i_m_source_file_index>  (332) 
4

>  <i_lp_mmshare_version>  (332) 
48012

>  <i_f3d_flags>  (332) 
0

>  <s_epik_input>  (332) 
TzFbQ0gyXU9bQ0BIXShPMilbQ0BAXShbQ0gyXVtDSDJdMykoW0NIMl1PW0NIM10pW0NASF0xW0NASF0zT1tDQEBIXShbQ0BASF00YzVbY0hdW2NIXW9bY0hdNSlbQ0BIXTJOKFtDSDJdW0NAQEhdKFtDQF02KFtPSF0pW0NIMl1bQ0gyXTcpTihbQ0gyXVtDSDJdOClbQ0gyXVtDSF05W0NIMl1bQ0gyXTkpW0NAXTQoT1tDSDNdKVtDQEBIXTFPYzJjKFtPSF0pW2NIXVtjSF1jN2MyW0NAQF0xNjg=

>  <s_epik_cmdline>  (332) 
J2VwaWtfcHl0aG9uJywgJy1waHQnLCAnMi4wJywgJy1waCcsICc3LjAnLCAnLXRuJywgJzgnLCAnLW1hJywgJzIwMCcsICctaW1hZScsICc8aW5maWxlLm1hZT4nLCAnLW9tYWUnLCAnPG91dGZpbGUubWFlPic=

>  <r_lp_tautomer_probability>  (332) 
1

>  <r_epik_Ionization_Penalty>  (332) 
0.0482945

>  <r_epik_Ionization_Penalty_Charging>  (332) 
0.0455935

>  <r_epik_Ionization_Penalty_Neutral>  (332) 
0.00270099

>  <r_epik_State_Penalty>  (332) 
0.0387142

>  <r_epik_Charging_Adjusted_Penalty>  (332) 
0.0843076

>  <i_epik_Tot_Q>  (332) 
1

>  <i_epik_Tot_abs_Q>  (332) 
1

>  <s_epik_Chemistry_Notes>  (332) 
This compound contains an acetal/aminal-like group ( X-CH(R)-Y where X, Y are N, S, or O) that may be acid/base labile, releasing an aldehyde.

>  <s_lp_Force_Field>  (332) 
OPLS3e

>  <r_lp_Energy>  (332) 
181.116

>  <b_lp_Chiralities_Consistent>  (332) 
1

>  <s_lp_Variant>  (332) 
95:0-1

>  <s_i_glide_gridfile>  (332) 
pfpi4k_grid

>  <i_i_glide_lignum>  (332) 
4

>  <i_i_glide_rotatable_bonds>  (332) 
8

>  <r_i_docking_score>  (332) 
-2.68156

>  <r_i_glide_ligand_efficiency>  (332) 
-0.0547256

>  <r_i_glide_ligand_efficiency_sa>  (332) 
-0.200258

>  <r_i_glide_ligand_efficiency_ln>  (332) 
-0.548171

>  <r_i_glide_gscore>  (332) 
-2.68156

>  <r_i_glide_lipo>  (332) 
-0.551845

>  <r_i_glide_hbond>  (332) 
0

>  <r_i_glide_metal>  (332) 
-0

>  <r_i_glide_rewards>  (332) 
-0.0801532

>  <r_i_glide_evdw>  (332) 
-29.6954

>  <r_i_glide_ecoul>  (332) 
-3.81296

>  <r_i_glide_erotb>  (332) 
0.0186946

>  <r_i_glide_esite>  (332) 
-0.0115405

>  <r_i_glide_emodel>  (332) 
-38.2187

>  <r_i_glide_energy>  (332) 
-33.5083

>  <r_i_glide_einternal>  (332) 
1.09601

>  <r_i_glide_intrahb_reward>  (332) 
-0

>  <i_i_glide_confnum>  (332) 
1

>  <i_i_glide_posenum>  (332) 
3

>  <r_i_glide_eff_state_penalty>  (332) 
0

>  <ligand_id>  (332) 
95

>  <original_smiles>  (332) 
COCC12CCC3OC4C(OC1OCOC32)N1CC2N(CC3CC3)CCC35c6c(ccc(O)c6OC3C1(OC)C4c1ccoc1)CCC25O

>  <smiles>  (332) 
[H]Oc1c([H])c([H])c2c3c1OC1([H])C4(OC([H])([H])[H])N(C([H])([H])C5([H])C(O[H])(C([H])([H])C2([H])[H])C31C([H])([H])C([H])([H])[N+]5([H])C([H])([H])C1([H])C([H])([H])C1([H])[H])C1([H])OC2([H])OC([H])([H])OC3([H])C([H])(OC1([H])C4([H])c1c([H])oc([H])c1[H])C([H])([H])C([H])([H])C23C([H])([H])OC([H])([H])[H]

$$$$
95:0:1
     RDKit          3D

 96106  0  0  1  0  0  0  0  0999 V2000
    7.4610   -2.7196   -0.5947 C   0  0  0  0  0  0  0  0  0  0  0  0
    6.2570   -3.1479    0.0078 O   0  0  0  0  0  0  0  0  0  0  0  0
    5.9859   -4.5331   -0.1145 C   0  0  0  0  0  0  0  0  0  0  0  0
    4.8145   -5.0347    0.7872 C   0  0  2  0  0  0  0  0  0  0  0  0
    4.3456   -6.3827    0.1780 C   0  0  0  0  0  0  0  0  0  0  0  0
    4.9482   -7.4644    1.0974 C   0  0  0  0  0  0  0  0  0  0  0  0
    5.0118   -6.8268    2.4885 C   0  0  2  0  0  0  0  0  0  0  0  0
    3.7700   -7.0166    3.1993 O   0  0  0  0  0  0  0  0  0  0  0  0
    2.4818   -6.7514    2.5752 C   0  0  2  0  0  0  0  0  0  0  0  0
    2.0283   -5.2725    2.3468 C   0  0  2  0  0  0  0  0  0  0  0  0
    2.4558   -4.5320    1.1874 O   0  0  0  0  0  0  0  0  0  0  0  0
    3.7433   -3.9467    1.0140 C   0  0  1  0  0  0  0  0  0  0  0  0
    4.0990   -3.0274    2.0699 O   0  0  0  0  0  0  0  0  0  0  0  0
    5.4460   -3.0671    2.5778 C   0  0  0  0  0  0  0  0  0  0  0  0
    6.0088   -4.3646    2.7680 O   0  0  0  0  0  0  0  0  0  0  0  0
    5.1408   -5.3340    2.2357 C   0  0  1  0  0  0  0  0  0  0  0  0
    1.9574   -4.6684    3.6608 N   0  0  0  0  0  0  0  0  0  0  0  0
    1.4391   -3.2956    3.7878 C   0  0  0  0  0  0  0  0  0  0  0  0
    1.7876   -2.5268    5.0989 C   0  0  2  0  0  0  0  0  0  0  0  0
    3.2854   -2.3024    5.1601 N   0  0  1  0  0  0  0  0  0  0  0  0
    3.7448   -0.9747    5.7214 C   0  0  0  0  0  0  0  0  0  0  0  0
    3.4909    0.1735    4.7697 C   0  0  0  0  0  0  0  0  0  0  0  0
    4.5382    0.5566    3.7548 C   0  0  0  0  0  0  0  0  0  0  0  0
    4.2831    1.4457    4.9489 C   0  0  0  0  0  0  0  0  0  0  0  0
    4.0570   -3.4614    5.7288 C   0  0  0  0  0  0  0  0  0  0  0  0
    3.4359   -3.9876    7.0235 C   0  0  0  0  0  0  0  0  0  0  0  0
    1.9507   -4.4191    6.8149 C   0  0  2  0  0  0  0  0  0  0  0  0
    1.3723   -4.9522    8.0900 C   0  0  0  0  0  0  0  0  0  0  0  0
    0.9899   -4.1836    9.1960 C   0  0  0  0  0  0  0  0  0  0  0  0
    0.4198   -4.8633   10.2849 C   0  0  0  0  0  0  0  0  0  0  0  0
    0.2286   -6.2657   10.2041 C   0  0  0  0  0  0  0  0  0  0  0  0
    0.5819   -6.9816    9.0396 C   0  0  0  0  0  0  0  0  0  0  0  0
    0.3214   -8.3174    8.9459 O   0  0  0  0  0  0  0  0  0  0  0  0
    1.1727   -6.3146    7.9523 C   0  0  0  0  0  0  0  0  0  0  0  0
    1.4904   -6.8234    6.7244 O   0  0  0  0  0  0  0  0  0  0  0  0
    1.9473   -5.7304    5.9128 C   0  0  1  0  0  0  0  0  0  0  0  0
    1.2758   -5.7040    4.4887 C   0  0  1  0  0  0  0  0  0  0  0  0
   -0.1187   -5.4562    4.5568 O   0  0  0  0  0  0  0  0  0  0  0  0
   -0.9753   -6.2386    5.4060 C   0  0  0  0  0  0  0  0  0  0  0  0
    1.5107   -7.0798    3.7209 C   0  0  1  0  0  0  0  0  0  0  0  0
    0.3033   -7.8389    3.1765 C   0  0  0  0  0  0  0  0  0  0  0  0
   -0.2152   -9.0678    3.6800 C   0  0  0  0  0  0  0  0  0  0  0  0
   -1.2726   -9.4035    2.8771 C   0  0  0  0  0  0  0  0  0  0  0  0
   -1.4625   -8.4767    1.9162 O   0  0  0  0  0  0  0  0  0  0  0  0
   -0.4921   -7.5518    2.0931 C   0  0  0  0  0  0  0  0  0  0  0  0
    1.2110   -2.6904    9.0560 C   0  0  0  0  0  0  0  0  0  0  0  0
    1.0765   -2.1105    7.6185 C   0  0  0  0  0  0  0  0  0  0  0  0
    1.1795   -3.1200    6.4007 C   0  0  1  0  0  0  0  0  0  0  0  0
   -0.1839   -3.3835    6.1525 O   0  0  0  0  0  0  0  0  0  0  0  0
    7.6168   -1.6915   -0.2950 H   0  0  0  0  0  0  0  0  0  0  0  0
    7.4339   -2.7606   -1.6845 H   0  0  0  0  0  0  0  0  0  0  0  0
    8.3178   -3.2885   -0.2401 H   0  0  0  0  0  0  0  0  0  0  0  0
    5.7457   -4.6954   -1.1624 H   0  0  0  0  0  0  0  0  0  0  0  0
    6.8838   -5.1273    0.0816 H   0  0  0  0  0  0  0  0  0  0  0  0
    3.2678   -6.4646    0.0927 H   0  0  0  0  0  0  0  0  0  0  0  0
    4.6847   -6.5417   -0.8456 H   0  0  0  0  0  0  0  0  0  0  0  0
    4.4003   -8.4115    1.0763 H   0  0  0  0  0  0  0  0  0  0  0  0
    5.9683   -7.6866    0.7925 H   0  0  0  0  0  0  0  0  0  0  0  0
    5.8455   -7.2134    3.0733 H   0  0  0  0  0  0  0  0  0  0  0  0
    2.2978   -7.3941    1.7176 H   0  0  0  0  0  0  0  0  0  0  0  0
    0.9883   -5.3310    2.0523 H   0  0  0  0  0  0  0  0  0  0  0  0
    3.6487   -3.3562    0.1004 H   0  0  0  0  0  0  0  0  0  0  0  0
    6.1138   -2.4553    1.9808 H   0  0  0  0  0  0  0  0  0  0  0  0
    5.4412   -2.5890    3.5553 H   0  0  0  0  0  0  0  0  0  0  0  0
    4.3693   -5.0491    2.9341 H   0  0  0  0  0  0  0  0  0  0  0  0
    1.7899   -2.7086    2.9362 H   0  0  0  0  0  0  0  0  0  0  0  0
    0.3590   -3.2990    3.6505 H   0  0  0  0  0  0  0  0  0  0  0  0
    1.3252   -1.5591    4.9738 H   0  0  0  0  0  0  0  0  0  0  0  0
    3.3145   -0.7348    6.6839 H   0  0  0  0  0  0  0  0  0  0  0  0
    4.8206   -1.0247    5.8869 H   0  0  0  0  0  0  0  0  0  0  0  0
    2.4487    0.3288    4.5032 H   0  0  0  0  0  0  0  0  0  0  0  0
    5.4577   -0.0282    3.7369 H   0  0  0  0  0  0  0  0  0  0  0  0
    4.1615    0.8850    2.7872 H   0  0  0  0  0  0  0  0  0  0  0  0
    3.7737    2.3874    4.7597 H   0  0  0  0  0  0  0  0  0  0  0  0
    5.0411    1.4774    5.7296 H   0  0  0  0  0  0  0  0  0  0  0  0
    4.1055   -4.2379    4.9824 H   0  0  0  0  0  0  0  0  0  0  0  0
    5.0885   -3.1678    5.8837 H   0  0  0  0  0  0  0  0  0  0  0  0
    4.0377   -4.8188    7.3848 H   0  0  0  0  0  0  0  0  0  0  0  0
    3.5300   -3.2071    7.7799 H   0  0  0  0  0  0  0  0  0  0  0  0
    0.1026   -4.3260   11.1745 H   0  0  0  0  0  0  0  0  0  0  0  0
   -0.2192   -6.7925   11.0358 H   0  0  0  0  0  0  0  0  0  0  0  0
    0.6991   -8.7077    8.1669 H   0  0  0  0  0  0  0  0  0  0  0  0
    2.9796   -6.0184    5.7100 H   0  0  0  0  0  0  0  0  0  0  0  0
   -1.9859   -6.2632    4.9954 H   0  0  0  0  0  0  0  0  0  0  0  0
   -1.0540   -5.8081    6.4011 H   0  0  0  0  0  0  0  0  0  0  0  0
   -0.6550   -7.2685    5.5317 H   0  0  0  0  0  0  0  0  0  0  0  0
    1.9785   -7.7868    4.4027 H   0  0  0  0  0  0  0  0  0  0  0  0
    0.1132   -9.6531    4.5210 H   0  0  0  0  0  0  0  0  0  0  0  0
   -1.9648  -10.2257    2.8668 H   0  0  0  0  0  0  0  0  0  0  0  0
   -0.5168   -6.7762    1.3407 H   0  0  0  0  0  0  0  0  0  0  0  0
    0.5331   -2.1664    9.7264 H   0  0  0  0  0  0  0  0  0  0  0  0
    2.2092   -2.4755    9.4346 H   0  0  0  0  0  0  0  0  0  0  0  0
    0.1315   -1.5658    7.5520 H   0  0  0  0  0  0  0  0  0  0  0  0
    1.8106   -1.3170    7.5893 H   0  0  0  0  0  0  0  0  0  0  0  0
   -0.2457   -4.1716    5.6196 H   0  0  0  0  0  0  0  0  0  0  0  0
    3.5601   -2.2646    4.1849 H   0  0  0  0  0  0  0  0  0  0  0  0
  1  2  1  0
  1 50  1  0
  1 51  1  0
  1 52  1  0
  2  3  1  0
  4  3  1  6
  3 53  1  0
  3 54  1  0
  4 12  1  0
  4 16  1  0
  4  5  1  0
  5  6  1  0
  5 55  1  0
  5 56  1  0
  6  7  1  0
  6 57  1  0
  6 58  1  0
  7 16  1  0
  7  8  1  0
  7 59  1  1
  8  9  1  0
  9 40  1  0
  9 10  1  0
  9 60  1  6
 10 11  1  0
 10 17  1  0
 10 61  1  6
 11 12  1  0
 12 13  1  0
 12 62  1  6
 13 14  1  0
 14 15  1  0
 14 63  1  0
 14 64  1  0
 15 16  1  0
 16 65  1  1
 17 37  1  0
 17 18  1  0
 18 19  1  0
 18 66  1  0
 18 67  1  0
 19 48  1  0
 19 20  1  0
 19 68  1  6
 20 21  1  0
 20 25  1  0
 20 96  1  6
 21 22  1  0
 21 69  1  0
 21 70  1  0
 22 24  1  0
 22 23  1  0
 22 71  1  0
 23 24  1  0
 23 72  1  0
 23 73  1  0
 24 74  1  0
 24 75  1  0
 25 26  1  0
 25 76  1  0
 25 77  1  0
 27 26  1  1
 26 78  1  0
 26 79  1  0
 27 36  1  0
 27 48  1  0
 27 28  1  0
 28 34  2  0
 28 29  1  0
 29 30  2  0
 29 46  1  0
 30 31  1  0
 30 80  1  0
 31 32  2  0
 31 81  1  0
 32 33  1  0
 32 34  1  0
 33 82  1  0
 34 35  1  0
 35 36  1  0
 36 37  1  0
 36 83  1  6
 37 38  1  1
 37 40  1  0
 38 39  1  0
 39 84  1  0
 39 85  1  0
 39 86  1  0
 40 41  1  0
 40 87  1  1
 41 45  2  0
 41 42  1  0
 42 43  2  0
 42 88  1  0
 43 44  1  0
 43 89  1  0
 44 45  1  0
 45 90  1  0
 46 47  1  0
 46 91  1  0
 46 92  1  0
 47 48  1  0
 47 93  1  0
 47 94  1  0
 48 49  1  6
 49 95  1  0
M  CHG  1  20   1
M  END
>  <i_m_ct_stereo_status>  (333) 
1

>  <s_m_source_file>  (333) 
/var/tmp/pbs.5083858.sched01/tmpwjm1f1st/135fnrmq3q8.sdf

>  <i_m_source_file_index>  (333) 
4

>  <i_lp_mmshare_version>  (333) 
48012

>  <i_f3d_flags>  (333) 
0

>  <s_epik_input>  (333) 
TzFbQ0gyXU9bQ0BIXShPMilbQ0BAXShbQ0gyXVtDSDJdMykoW0NIMl1PW0NIM10pW0NASF0xW0NASF0zT1tDQEBIXShbQ0BASF00YzVbY0hdW2NIXW9bY0hdNSlbQ0BIXTJOKFtDSDJdW0NAQEhdKFtDQF02KFtPSF0pW0NIMl1bQ0gyXTcpTihbQ0gyXVtDSDJdOClbQ0gyXVtDSF05W0NIMl1bQ0gyXTkpW0NAXTQoT1tDSDNdKVtDQEBIXTFPYzJjKFtPSF0pW2NIXVtjSF1jN2MyW0NAQF0xNjg=

>  <s_epik_cmdline>  (333) 
J2VwaWtfcHl0aG9uJywgJy1waHQnLCAnMi4wJywgJy1waCcsICc3LjAnLCAnLXRuJywgJzgnLCAnLW1hJywgJzIwMCcsICctaW1hZScsICc8aW5maWxlLm1hZT4nLCAnLW9tYWUnLCAnPG91dGZpbGUubWFlPic=

>  <r_lp_tautomer_probability>  (333) 
1

>  <r_epik_Ionization_Penalty>  (333) 
0.0482945

>  <r_epik_Ionization_Penalty_Charging>  (333) 
0.0455935

>  <r_epik_Ionization_Penalty_Neutral>  (333) 
0.00270099

>  <r_epik_State_Penalty>  (333) 
0.0387142

>  <r_epik_Charging_Adjusted_Penalty>  (333) 
0.0843076

>  <i_epik_Tot_Q>  (333) 
1

>  <i_epik_Tot_abs_Q>  (333) 
1

>  <s_epik_Chemistry_Notes>  (333) 
This compound contains an acetal/aminal-like group ( X-CH(R)-Y where X, Y are N, S, or O) that may be acid/base labile, releasing an aldehyde.

>  <s_lp_Force_Field>  (333) 
OPLS3e

>  <r_lp_Energy>  (333) 
181.116

>  <b_lp_Chiralities_Consistent>  (333) 
1

>  <s_lp_Variant>  (333) 
95:0-1

>  <s_i_glide_gridfile>  (333) 
pfpi4k_grid

>  <i_i_glide_lignum>  (333) 
4

>  <i_i_glide_rotatable_bonds>  (333) 
8

>  <r_i_docking_score>  (333) 
-2.08148

>  <r_i_glide_ligand_efficiency>  (333) 
-0.0424793

>  <r_i_glide_ligand_efficiency_sa>  (333) 
-0.155445

>  <r_i_glide_ligand_efficiency_ln>  (333) 
-0.425503

>  <r_i_glide_gscore>  (333) 
-2.08148

>  <r_i_glide_lipo>  (333) 
-0.327732

>  <r_i_glide_hbond>  (333) 
0

>  <r_i_glide_metal>  (333) 
-0

>  <r_i_glide_rewards>  (333) 
-0.0569513

>  <r_i_glide_evdw>  (333) 
-29.1837

>  <r_i_glide_ecoul>  (333) 
-1.54215

>  <r_i_glide_erotb>  (333) 
0.0186946

>  <r_i_glide_esite>  (333) 
-0.0249906

>  <r_i_glide_emodel>  (333) 
-32.123

>  <r_i_glide_energy>  (333) 
-30.7258

>  <r_i_glide_einternal>  (333) 
3.99047

>  <r_i_glide_intrahb_reward>  (333) 
-0

>  <i_i_glide_confnum>  (333) 
1

>  <i_i_glide_posenum>  (333) 
8

>  <r_i_glide_eff_state_penalty>  (333) 
0

>  <ligand_id>  (333) 
95

>  <original_smiles>  (333) 
COCC12CCC3OC4C(OC1OCOC32)N1CC2N(CC3CC3)CCC35c6c(ccc(O)c6OC3C1(OC)C4c1ccoc1)CCC25O

>  <smiles>  (333) 
[H]Oc1c([H])c([H])c2c3c1OC1([H])C4(OC([H])([H])[H])N(C([H])([H])C5([H])C(O[H])(C([H])([H])C2([H])[H])C31C([H])([H])C([H])([H])[N+]5([H])C([H])([H])C1([H])C([H])([H])C1([H])[H])C1([H])OC2([H])OC([H])([H])OC3([H])C([H])(OC1([H])C4([H])c1c([H])oc([H])c1[H])C([H])([H])C([H])([H])C23C([H])([H])OC([H])([H])[H]

$$$$
95:0:2
     RDKit          3D

 96106  0  0  1  0  0  0  0  0999 V2000
   -0.1257   -0.1327    9.5773 C   0  0  0  0  0  0  0  0  0  0  0  0
    0.2141   -0.9567    8.4731 O   0  0  0  0  0  0  0  0  0  0  0  0
    1.2735   -1.8644    8.7671 C   0  0  0  0  0  0  0  0  0  0  0  0
    1.7300   -2.6151    7.4655 C   0  0  2  0  0  0  0  0  0  0  0  0
    2.3191   -1.5401    6.5216 C   0  0  0  0  0  0  0  0  0  0  0  0
    3.8470   -1.7186    6.6429 C   0  0  0  0  0  0  0  0  0  0  0  0
    4.0638   -3.2138    6.9207 C   0  0  2  0  0  0  0  0  0  0  0  0
    4.1438   -3.9780    5.6967 O   0  0  0  0  0  0  0  0  0  0  0  0
    3.1841   -3.7773    4.6152 C   0  0  2  0  0  0  0  0  0  0  0  0
    1.7171   -4.3547    4.7557 C   0  0  2  0  0  0  0  0  0  0  0  0
    0.7020   -3.6222    5.4653 O   0  0  0  0  0  0  0  0  0  0  0  0
    0.6055   -3.5184    6.8899 C   0  0  1  0  0  0  0  0  0  0  0  0
    0.5306   -4.7867    7.5690 O   0  0  0  0  0  0  0  0  0  0  0  0
    1.2602   -4.9222    8.7950 C   0  0  0  0  0  0  0  0  0  0  0  0
    2.5885   -4.4126    8.8023 O   0  0  0  0  0  0  0  0  0  0  0  0
    2.8009   -3.6723    7.6243 C   0  0  1  0  0  0  0  0  0  0  0  0
    1.9064   -5.7872    4.9042 N   0  0  0  0  0  0  0  0  0  0  0  0
    0.6834   -6.6263    4.9547 C   0  0  0  0  0  0  0  0  0  0  0  0
    0.8495   -8.0598    5.5679 C   0  0  2  0  0  0  0  0  0  0  0  0
    1.2241   -7.9555    7.0129 N   0  0  1  0  0  0  0  0  0  0  0  0
    0.6244   -8.9780    7.9117 C   0  0  0  0  0  0  0  0  0  0  0  0
    0.5105   -8.5195    9.3563 C   0  0  0  0  0  0  0  0  0  0  0  0
    1.6871   -8.6335   10.3243 C   0  0  0  0  0  0  0  0  0  0  0  0
    0.5053   -9.5332   10.4905 C   0  0  0  0  0  0  0  0  0  0  0  0
    2.6770   -7.7391    7.2333 C   0  0  0  0  0  0  0  0  0  0  0  0
    3.5476   -8.7381    6.4508 C   0  0  0  0  0  0  0  0  0  0  0  0
    3.2585   -8.6292    4.9231 C   0  0  2  0  0  0  0  0  0  0  0  0
    4.1206   -9.5883    4.1557 C   0  0  0  0  0  0  0  0  0  0  0  0
    3.9289  -10.9840    4.1019 C   0  0  0  0  0  0  0  0  0  0  0  0
    4.8247  -11.6968    3.2851 C   0  0  0  0  0  0  0  0  0  0  0  0
    5.8296  -11.0085    2.5563 C   0  0  0  0  0  0  0  0  0  0  0  0
    5.9367   -9.5910    2.6284 C   0  0  0  0  0  0  0  0  0  0  0  0
    6.8599   -8.9274    1.8785 O   0  0  0  0  0  0  0  0  0  0  0  0
    5.0673   -8.8645    3.4573 C   0  0  0  0  0  0  0  0  0  0  0  0
    4.9724   -7.5038    3.5818 O   0  0  0  0  0  0  0  0  0  0  0  0
    3.8484   -7.2366    4.4221 C   0  0  1  0  0  0  0  0  0  0  0  0
    2.8873   -6.1277    3.8341 C   0  0  1  0  0  0  0  0  0  0  0  0
    2.2301   -6.5225    2.6529 O   0  0  0  0  0  0  0  0  0  0  0  0
    2.9397   -7.1552    1.5777 C   0  0  0  0  0  0  0  0  0  0  0  0
    3.6930   -4.7722    3.5447 C   0  0  1  0  0  0  0  0  0  0  0  0
    3.5944   -4.1374    2.1436 C   0  0  0  0  0  0  0  0  0  0  0  0
    2.7403   -3.0676    1.7186 C   0  0  0  0  0  0  0  0  0  0  0  0
    3.0042   -2.8270    0.4023 C   0  0  0  0  0  0  0  0  0  0  0  0
    3.9844   -3.6464   -0.0392 O   0  0  0  0  0  0  0  0  0  0  0  0
    4.3503   -4.4059    1.0234 C   0  0  0  0  0  0  0  0  0  0  0  0
    2.7489  -11.4989    4.9010 C   0  0  0  0  0  0  0  0  0  0  0  0
    1.5314  -10.5488    5.0548 C   0  0  0  0  0  0  0  0  0  0  0  0
    1.7639   -9.0207    4.7470 C   0  0  1  0  0  0  0  0  0  0  0  0
    1.3764   -8.9943    3.3925 O   0  0  0  0  0  0  0  0  0  0  0  0
   -0.9387    0.5378    9.2991 H   0  0  0  0  0  0  0  0  0  0  0  0
    0.7163    0.4851    9.8878 H   0  0  0  0  0  0  0  0  0  0  0  0
   -0.4571   -0.7225   10.4326 H   0  0  0  0  0  0  0  0  0  0  0  0
    2.1374   -1.3211    9.1628 H   0  0  0  0  0  0  0  0  0  0  0  0
    0.9099   -2.4871    9.5789 H   0  0  0  0  0  0  0  0  0  0  0  0
    1.9710   -1.6097    5.4970 H   0  0  0  0  0  0  0  0  0  0  0  0
    2.0527   -0.5242    6.8213 H   0  0  0  0  0  0  0  0  0  0  0  0
    4.4037   -1.3569    5.7747 H   0  0  0  0  0  0  0  0  0  0  0  0
    4.1983   -1.1431    7.5000 H   0  0  0  0  0  0  0  0  0  0  0  0
    4.9550   -3.3889    7.5198 H   0  0  0  0  0  0  0  0  0  0  0  0
    3.2086   -2.7629    4.2530 H   0  0  0  0  0  0  0  0  0  0  0  0
    1.2599   -4.2614    3.7740 H   0  0  0  0  0  0  0  0  0  0  0  0
   -0.3486   -3.0255    7.0513 H   0  0  0  0  0  0  0  0  0  0  0  0
    0.6728   -4.5388    9.6312 H   0  0  0  0  0  0  0  0  0  0  0  0
    1.3488   -5.9838    9.0041 H   0  0  0  0  0  0  0  0  0  0  0  0
    2.6541   -4.5485    7.0154 H   0  0  0  0  0  0  0  0  0  0  0  0
   -0.0870   -6.1072    5.5277 H   0  0  0  0  0  0  0  0  0  0  0  0
    0.2550   -6.7065    3.9563 H   0  0  0  0  0  0  0  0  0  0  0  0
   -0.1502   -8.4863    5.5002 H   0  0  0  0  0  0  0  0  0  0  0  0
   -0.3808   -9.2581    7.5850 H   0  0  0  0  0  0  0  0  0  0  0  0
    1.2323   -9.8817    7.9290 H   0  0  0  0  0  0  0  0  0  0  0  0
   -0.1745   -7.6785    9.5082 H   0  0  0  0  0  0  0  0  0  0  0  0
    2.6080   -9.1251   10.0019 H   0  0  0  0  0  0  0  0  0  0  0  0
    1.8168   -7.8055   11.0209 H   0  0  0  0  0  0  0  0  0  0  0  0
   -0.1138   -9.3496   11.3674 H   0  0  0  0  0  0  0  0  0  0  0  0
    0.6678  -10.5828   10.2501 H   0  0  0  0  0  0  0  0  0  0  0  0
    2.9415   -6.7254    6.9530 H   0  0  0  0  0  0  0  0  0  0  0  0
    2.9483   -7.7888    8.2857 H   0  0  0  0  0  0  0  0  0  0  0  0
    4.5938   -8.5517    6.6726 H   0  0  0  0  0  0  0  0  0  0  0  0
    3.3459   -9.7501    6.8290 H   0  0  0  0  0  0  0  0  0  0  0  0
    4.7295  -12.7679    3.1666 H   0  0  0  0  0  0  0  0  0  0  0  0
    6.4877  -11.5454    1.9039 H   0  0  0  0  0  0  0  0  0  0  0  0
    6.8628   -8.0026    2.0666 H   0  0  0  0  0  0  0  0  0  0  0  0
    4.3227   -6.7508    5.2702 H   0  0  0  0  0  0  0  0  0  0  0  0
    2.4450   -6.9080    0.6411 H   0  0  0  0  0  0  0  0  0  0  0  0
    2.9694   -8.2359    1.6614 H   0  0  0  0  0  0  0  0  0  0  0  0
    3.9690   -6.8394    1.4940 H   0  0  0  0  0  0  0  0  0  0  0  0
    4.7546   -4.9624    3.7003 H   0  0  0  0  0  0  0  0  0  0  0  0
    2.0090   -2.5197    2.2925 H   0  0  0  0  0  0  0  0  0  0  0  0
    2.6141   -2.1316   -0.3276 H   0  0  0  0  0  0  0  0  0  0  0  0
    5.1648   -5.0800    0.7892 H   0  0  0  0  0  0  0  0  0  0  0  0
    2.4148  -12.4349    4.4521 H   0  0  0  0  0  0  0  0  0  0  0  0
    3.1150  -11.7756    5.8899 H   0  0  0  0  0  0  0  0  0  0  0  0
    0.7266  -10.9298    4.4247 H   0  0  0  0  0  0  0  0  0  0  0  0
    1.1236  -10.7027    6.0410 H   0  0  0  0  0  0  0  0  0  0  0  0
    1.9390   -9.6043    2.9374 H   0  0  0  0  0  0  0  0  0  0  0  0
    0.7754   -7.0830    7.2892 H   0  0  0  0  0  0  0  0  0  0  0  0
  1  2  1  0
  1 50  1  0
  1 51  1  0
  1 52  1  0
  2  3  1  0
  4  3  1  1
  3 53  1  0
  3 54  1  0
  4 12  1  0
  4 16  1  0
  4  5  1  0
  5  6  1  0
  5 55  1  0
  5 56  1  0
  6  7  1  0
  6 57  1  0
  6 58  1  0
  7 16  1  0
  7  8  1  0
  7 59  1  1
  8  9  1  0
  9 40  1  0
  9 10  1  0
  9 60  1  6
 10 11  1  0
 10 17  1  0
 10 61  1  6
 11 12  1  0
 12 13  1  0
 12 62  1  6
 13 14  1  0
 14 15  1  0
 14 63  1  0
 14 64  1  0
 15 16  1  0
 16 65  1  6
 17 37  1  0
 17 18  1  0
 18 19  1  0
 18 66  1  0
 18 67  1  0
 19 48  1  0
 19 20  1  0
 19 68  1  1
 20 21  1  0
 20 25  1  0
 20 96  1  1
 21 22  1  0
 21 69  1  0
 21 70  1  0
 22 24  1  0
 22 23  1  0
 22 71  1  0
 23 24  1  0
 23 72  1  0
 23 73  1  0
 24 74  1  0
 24 75  1  0
 25 26  1  0
 25 76  1  0
 25 77  1  0
 27 26  1  1
 26 78  1  0
 26 79  1  0
 27 36  1  0
 27 48  1  0
 27 28  1  0
 28 34  2  0
 28 29  1  0
 29 30  2  0
 29 46  1  0
 30 31  1  0
 30 80  1  0
 31 32  2  0
 31 81  1  0
 32 33  1  0
 32 34  1  0
 33 82  1  0
 34 35  1  0
 35 36  1  0
 36 37  1  0
 36 83  1  1
 37 38  1  6
 37 40  1  0
 38 39  1  0
 39 84  1  0
 39 85  1  0
 39 86  1  0
 40 41  1  0
 40 87  1  1
 41 45  2  0
 41 42  1  0
 42 43  2  0
 42 88  1  0
 43 44  1  0
 43 89  1  0
 44 45  1  0
 45 90  1  0
 46 47  1  0
 46 91  1  0
 46 92  1  0
 47 48  1  0
 47 93  1  0
 47 94  1  0
 48 49  1  6
 49 95  1  0
M  CHG  1  20   1
M  END
>  <i_m_ct_stereo_status>  (334) 
1

>  <s_m_source_file>  (334) 
/var/tmp/pbs.5083858.sched01/tmpwjm1f1st/135fnrmq3q8.sdf

>  <i_m_source_file_index>  (334) 
4

>  <i_lp_mmshare_version>  (334) 
48012

>  <i_f3d_flags>  (334) 
0

>  <s_epik_input>  (334) 
TzFbQ0gyXU9bQ0BIXShPMilbQ0BAXShbQ0gyXVtDSDJdMykoW0NIMl1PW0NIM10pW0NASF0xW0NASF0zT1tDQEBIXShbQ0BASF00YzVbY0hdW2NIXW9bY0hdNSlbQ0BIXTJOKFtDSDJdW0NAQEhdKFtDQF02KFtPSF0pW0NIMl1bQ0gyXTcpTihbQ0gyXVtDSDJdOClbQ0gyXVtDSF05W0NIMl1bQ0gyXTkpW0NAXTQoT1tDSDNdKVtDQEBIXTFPYzJjKFtPSF0pW2NIXVtjSF1jN2MyW0NAQF0xNjg=

>  <s_epik_cmdline>  (334) 
J2VwaWtfcHl0aG9uJywgJy1waHQnLCAnMi4wJywgJy1waCcsICc3LjAnLCAnLXRuJywgJzgnLCAnLW1hJywgJzIwMCcsICctaW1hZScsICc8aW5maWxlLm1hZT4nLCAnLW9tYWUnLCAnPG91dGZpbGUubWFlPic=

>  <r_lp_tautomer_probability>  (334) 
1

>  <r_epik_Ionization_Penalty>  (334) 
0.0482945

>  <r_epik_Ionization_Penalty_Charging>  (334) 
0.0455935

>  <r_epik_Ionization_Penalty_Neutral>  (334) 
0.00270099

>  <r_epik_State_Penalty>  (334) 
0.0387142

>  <r_epik_Charging_Adjusted_Penalty>  (334) 
0.0843076

>  <i_epik_Tot_Q>  (334) 
1

>  <i_epik_Tot_abs_Q>  (334) 
1

>  <s_epik_Chemistry_Notes>  (334) 
This compound contains an acetal/aminal-like group ( X-CH(R)-Y where X, Y are N, S, or O) that may be acid/base labile, releasing an aldehyde.

>  <s_lp_Force_Field>  (334) 
OPLS3e

>  <r_lp_Energy>  (334) 
181.116

>  <b_lp_Chiralities_Consistent>  (334) 
1

>  <s_lp_Variant>  (334) 
95:0-1

>  <s_i_glide_gridfile>  (334) 
pfpi4k_grid

>  <i_i_glide_lignum>  (334) 
4

>  <i_i_glide_rotatable_bonds>  (334) 
8

>  <r_i_docking_score>  (334) 
-1.9157

>  <r_i_glide_ligand_efficiency>  (334) 
-0.039096

>  <r_i_glide_ligand_efficiency_sa>  (334) 
-0.143064

>  <r_i_glide_ligand_efficiency_ln>  (334) 
-0.391613

>  <r_i_glide_gscore>  (334) 
-1.9157

>  <r_i_glide_lipo>  (334) 
-0.0638835

>  <r_i_glide_hbond>  (334) 
-0.0292424

>  <r_i_glide_metal>  (334) 
-0

>  <r_i_glide_rewards>  (334) 
-0.00199922

>  <r_i_glide_evdw>  (334) 
-25.5105

>  <r_i_glide_ecoul>  (334) 
-3.58258

>  <r_i_glide_erotb>  (334) 
0.0186946

>  <r_i_glide_esite>  (334) 
-0.0263595

>  <r_i_glide_emodel>  (334) 
-31.3963

>  <r_i_glide_energy>  (334) 
-29.0931

>  <r_i_glide_einternal>  (334) 
1.26491

>  <r_i_glide_intrahb_reward>  (334) 
-0

>  <i_i_glide_confnum>  (334) 
1

>  <i_i_glide_posenum>  (334) 
21

>  <r_i_glide_eff_state_penalty>  (334) 
0

>  <ligand_id>  (334) 
95

>  <original_smiles>  (334) 
COCC12CCC3OC4C(OC1OCOC32)N1CC2N(CC3CC3)CCC35c6c(ccc(O)c6OC3C1(OC)C4c1ccoc1)CCC25O

>  <smiles>  (334) 
[H]Oc1c([H])c([H])c2c3c1OC1([H])C4(OC([H])([H])[H])N(C([H])([H])C5([H])C(O[H])(C([H])([H])C2([H])[H])C31C([H])([H])C([H])([H])[N+]5([H])C([H])([H])C1([H])C([H])([H])C1([H])[H])C1([H])OC2([H])OC([H])([H])OC3([H])C([H])(OC1([H])C4([H])c1c([H])oc([H])c1[H])C([H])([H])C([H])([H])C23C([H])([H])OC([H])([H])[H]

$$$$
95:1:0
     RDKit          3D

 95105  0  0  1  0  0  0  0  0999 V2000
    5.3315   -3.4481   -2.3063 C   0  0  0  0  0  0  0  0  0  0  0  0
    4.6147   -4.1833   -1.3304 O   0  0  0  0  0  0  0  0  0  0  0  0
    5.1572   -4.0808   -0.0236 C   0  0  0  0  0  0  0  0  0  0  0  0
    4.3592   -5.0043    0.9669 C   0  0  2  0  0  0  0  0  0  0  0  0
    4.6105   -6.4528    0.4956 C   0  0  0  0  0  0  0  0  0  0  0  0
    5.6910   -6.9707    1.4605 C   0  0  0  0  0  0  0  0  0  0  0  0
    5.4324   -6.2557    2.7972 C   0  0  2  0  0  0  0  0  0  0  0  0
    4.4520   -6.9705    3.5837 O   0  0  0  0  0  0  0  0  0  0  0  0
    3.1925   -7.4375    3.0086 C   0  0  2  0  0  0  0  0  0  0  0  0
    2.0477   -6.4000    2.7068 C   0  0  2  0  0  0  0  0  0  0  0  0
    2.0262   -5.6689    1.4541 O   0  0  0  0  0  0  0  0  0  0  0  0
    2.8861   -4.5647    1.1346 C   0  0  1  0  0  0  0  0  0  0  0  0
    2.7673   -3.4730    2.0480 O   0  0  0  0  0  0  0  0  0  0  0  0
    3.9636   -2.7955    2.4464 C   0  0  0  0  0  0  0  0  0  0  0  0
    5.1013   -3.6078    2.7274 O   0  0  0  0  0  0  0  0  0  0  0  0
    4.7887   -4.9412    2.4170 C   0  0  1  0  0  0  0  0  0  0  0  0
    1.7637   -5.7934    3.9961 N   0  0  0  0  0  0  0  0  0  0  0  0
    0.6704   -4.8186    4.0803 C   0  0  0  0  0  0  0  0  0  0  0  0
    0.7167   -3.8298    5.2869 C   0  0  2  0  0  0  0  0  0  0  0  0
    1.9060   -2.9424    5.2125 N   0  0  0  0  0  0  0  0  0  0  0  0
    1.7175   -1.5374    5.5947 C   0  0  0  0  0  0  0  0  0  0  0  0
    2.4652   -0.5355    4.7191 C   0  0  0  0  0  0  0  0  0  0  0  0
    2.1746    0.9414    4.7933 C   0  0  0  0  0  0  0  0  0  0  0  0
    1.7275    0.1640    3.5814 C   0  0  0  0  0  0  0  0  0  0  0  0
    3.1144   -3.5500    5.7853 C   0  0  0  0  0  0  0  0  0  0  0  0
    2.9002   -4.1822    7.1717 C   0  0  0  0  0  0  0  0  0  0  0  0
    1.7876   -5.2680    7.1028 C   0  0  2  0  0  0  0  0  0  0  0  0
    1.5566   -5.8894    8.4509 C   0  0  0  0  0  0  0  0  0  0  0  0
    0.8894   -5.2924    9.5321 C   0  0  0  0  0  0  0  0  0  0  0  0
    0.7439   -6.0680   10.6971 C   0  0  0  0  0  0  0  0  0  0  0  0
    1.2431   -7.3961   10.7234 C   0  0  0  0  0  0  0  0  0  0  0  0
    1.8598   -7.9636    9.5877 C   0  0  0  0  0  0  0  0  0  0  0  0
    2.2718   -9.2673    9.6034 O   0  0  0  0  0  0  0  0  0  0  0  0
    2.0305   -7.1956    8.4156 C   0  0  0  0  0  0  0  0  0  0  0  0
    2.5146   -7.6021    7.2097 O   0  0  0  0  0  0  0  0  0  0  0  0
    2.3604   -6.5101    6.2931 C   0  0  1  0  0  0  0  0  0  0  0  0
    1.6918   -6.9473    4.9378 C   0  0  1  0  0  0  0  0  0  0  0  0
    0.3544   -7.3829    5.1051 O   0  0  0  0  0  0  0  0  0  0  0  0
    0.0140   -8.4059    6.0547 C   0  0  0  0  0  0  0  0  0  0  0  0
    2.5329   -8.1083    4.2276 C   0  0  1  0  0  0  0  0  0  0  0  0
    1.8157   -9.3937    3.8060 C   0  0  0  0  0  0  0  0  0  0  0  0
    1.7972  -10.6384    4.5181 C   0  0  0  0  0  0  0  0  0  0  0  0
    1.0343  -11.4985    3.7947 C   0  0  0  0  0  0  0  0  0  0  0  0
    0.6042  -10.9150    2.6525 O   0  0  0  0  0  0  0  0  0  0  0  0
    1.1072   -9.6563    2.6658 C   0  0  0  0  0  0  0  0  0  0  0  0
    0.3852   -3.8812    9.2613 C   0  0  0  0  0  0  0  0  0  0  0  0
   -0.0025   -3.5492    7.7928 C   0  0  0  0  0  0  0  0  0  0  0  0
    0.4935   -4.5260    6.6701 C   0  0  1  0  0  0  0  0  0  0  0  0
   -0.5982   -5.4168    6.5549 O   0  0  0  0  0  0  0  0  0  0  0  0
    4.8643   -3.5884   -3.2800 H   0  0  0  0  0  0  0  0  0  0  0  0
    6.3641   -3.7869   -2.3821 H   0  0  0  0  0  0  0  0  0  0  0  0
    5.3271   -2.3812   -2.0830 H   0  0  0  0  0  0  0  0  0  0  0  0
    6.2034   -4.3886   -0.0401 H   0  0  0  0  0  0  0  0  0  0  0  0
    5.1755   -3.0257    0.2293 H   0  0  0  0  0  0  0  0  0  0  0  0
    3.7099   -7.0542    0.4872 H   0  0  0  0  0  0  0  0  0  0  0  0
    4.9730   -6.4888   -0.5298 H   0  0  0  0  0  0  0  0  0  0  0  0
    5.6969   -8.0570    1.5573 H   0  0  0  0  0  0  0  0  0  0  0  0
    6.6716   -6.6697    1.0876 H   0  0  0  0  0  0  0  0  0  0  0  0
    6.3453   -6.1137    3.3768 H   0  0  0  0  0  0  0  0  0  0  0  0
    3.3474   -8.1604    2.2134 H   0  0  0  0  0  0  0  0  0  0  0  0
    1.1548   -6.9846    2.4934 H   0  0  0  0  0  0  0  0  0  0  0  0
    2.5149   -4.1767    0.1845 H   0  0  0  0  0  0  0  0  0  0  0  0
    4.1953   -2.0074    1.7263 H   0  0  0  0  0  0  0  0  0  0  0  0
    3.7134   -2.3092    3.3679 H   0  0  0  0  0  0  0  0  0  0  0  0
    3.9911   -4.9792    3.1423 H   0  0  0  0  0  0  0  0  0  0  0  0
    0.6460   -4.2120    3.1748 H   0  0  0  0  0  0  0  0  0  0  0  0
   -0.2861   -5.3415    4.0775 H   0  0  0  0  0  0  0  0  0  0  0  0
   -0.1710   -3.2111    5.1334 H   0  0  0  0  0  0  0  0  0  0  0  0
    0.6618   -1.2757    5.5679 H   0  0  0  0  0  0  0  0  0  0  0  0
    2.0554   -1.3840    6.6155 H   0  0  0  0  0  0  0  0  0  0  0  0
    3.5412   -0.7053    4.6470 H   0  0  0  0  0  0  0  0  0  0  0  0
    1.4504    1.2520    5.5459 H   0  0  0  0  0  0  0  0  0  0  0  0
    3.0374    1.5952    4.6725 H   0  0  0  0  0  0  0  0  0  0  0  0
    2.2579    0.3430    2.6458 H   0  0  0  0  0  0  0  0  0  0  0  0
    0.6571   -0.0190    3.4674 H   0  0  0  0  0  0  0  0  0  0  0  0
    3.5074   -4.3052    5.1103 H   0  0  0  0  0  0  0  0  0  0  0  0
    3.8966   -2.8012    5.8394 H   0  0  0  0  0  0  0  0  0  0  0  0
    3.8373   -4.5964    7.5422 H   0  0  0  0  0  0  0  0  0  0  0  0
    2.6532   -3.3872    7.8704 H   0  0  0  0  0  0  0  0  0  0  0  0
    0.2431   -5.6712   11.5682 H   0  0  0  0  0  0  0  0  0  0  0  0
    1.1285   -8.0006   11.6092 H   0  0  0  0  0  0  0  0  0  0  0  0
    2.5443   -9.5828    8.7527 H   0  0  0  0  0  0  0  0  0  0  0  0
    3.3933   -6.2895    6.0226 H   0  0  0  0  0  0  0  0  0  0  0  0
   -0.8688   -8.9530    5.7128 H   0  0  0  0  0  0  0  0  0  0  0  0
   -0.1921   -7.9961    7.0380 H   0  0  0  0  0  0  0  0  0  0  0  0
    0.7929   -9.1356    6.2304 H   0  0  0  0  0  0  0  0  0  0  0  0
    3.3039   -8.4451    4.9188 H   0  0  0  0  0  0  0  0  0  0  0  0
    2.2495  -10.8765    5.4716 H   0  0  0  0  0  0  0  0  0  0  0  0
    0.7052  -12.5187    3.9461 H   0  0  0  0  0  0  0  0  0  0  0  0
    0.8488   -9.0909    1.7801 H   0  0  0  0  0  0  0  0  0  0  0  0
   -0.4654   -3.7014    9.9196 H   0  0  0  0  0  0  0  0  0  0  0  0
    1.1614   -3.1952    9.6007 H   0  0  0  0  0  0  0  0  0  0  0  0
   -1.0889   -3.4737    7.7458 H   0  0  0  0  0  0  0  0  0  0  0  0
    0.3317   -2.5332    7.6015 H   0  0  0  0  0  0  0  0  0  0  0  0
   -0.2990   -6.1909    6.0853 H   0  0  0  0  0  0  0  0  0  0  0  0
  1  2  1  0
  1 50  1  0
  1 51  1  0
  1 52  1  0
  2  3  1  0
  4  3  1  6
  3 53  1  0
  3 54  1  0
  4 12  1  0
  4 16  1  0
  4  5  1  0
  5  6  1  0
  5 55  1  0
  5 56  1  0
  6  7  1  0
  6 57  1  0
  6 58  1  0
  7 16  1  0
  7  8  1  0
  7 59  1  1
  8  9  1  0
  9 40  1  0
  9 10  1  0
  9 60  1  6
 10 11  1  0
 10 17  1  0
 10 61  1  6
 11 12  1  0
 12 13  1  0
 12 62  1  6
 13 14  1  0
 14 15  1  0
 14 63  1  0
 14 64  1  0
 15 16  1  0
 16 65  1  1
 17 37  1  0
 17 18  1  0
 18 19  1  0
 18 66  1  0
 18 67  1  0
 19 48  1  0
 19 20  1  0
 19 68  1  6
 20 21  1  0
 20 25  1  0
 21 22  1  0
 21 69  1  0
 21 70  1  0
 22 24  1  0
 22 23  1  0
 22 71  1  0
 23 24  1  0
 23 72  1  0
 23 73  1  0
 24 74  1  0
 24 75  1  0
 25 26  1  0
 25 76  1  0
 25 77  1  0
 27 26  1  1
 26 78  1  0
 26 79  1  0
 27 36  1  0
 27 48  1  0
 27 28  1  0
 28 34  2  0
 28 29  1  0
 29 30  2  0
 29 46  1  0
 30 31  1  0
 30 80  1  0
 31 32  2  0
 31 81  1  0
 32 33  1  0
 32 34  1  0
 33 82  1  0
 34 35  1  0
 35 36  1  0
 36 37  1  0
 36 83  1  6
 37 38  1  1
 37 40  1  0
 38 39  1  0
 39 84  1  0
 39 85  1  0
 39 86  1  0
 40 41  1  0
 40 87  1  1
 41 45  2  0
 41 42  1  0
 42 43  2  0
 42 88  1  0
 43 44  1  0
 43 89  1  0
 44 45  1  0
 45 90  1  0
 46 47  1  0
 46 91  1  0
 46 92  1  0
 47 48  1  0
 47 93  1  0
 47 94  1  0
 48 49  1  6
 49 95  1  0
M  END
>  <i_m_ct_stereo_status>  (335) 
1

>  <s_m_source_file>  (335) 
/var/tmp/pbs.5083858.sched01/tmpwjm1f1st/135fnrmq3q8.sdf

>  <i_m_source_file_index>  (335) 
5

>  <i_lp_mmshare_version>  (335) 
48012

>  <i_f3d_flags>  (335) 
0

>  <s_epik_input>  (335) 
TzFbQ0gyXU9bQ0BIXShPMilbQ0BAXShbQ0gyXVtDSDJdMykoW0NIMl1PW0NIM10pW0NASF0xW0NASF0zT1tDQEBIXShbQ0BASF00YzVbY0hdW2NIXW9bY0hdNSlbQ0BIXTJOKFtDSDJdW0NAQEhdKFtDQF02KFtPSF0pW0NIMl1bQ0gyXTcpTihbQ0gyXVtDSDJdOClbQ0gyXVtDSF05W0NIMl1bQ0gyXTkpW0NAXTQoT1tDSDNdKVtDQEBIXTFPYzJjKFtPSF0pW2NIXVtjSF1jN2MyW0NAQF0xNjg=

>  <s_epik_cmdline>  (335) 
J2VwaWtfcHl0aG9uJywgJy1waHQnLCAnMi4wJywgJy1waCcsICc3LjAnLCAnLXRuJywgJzgnLCAnLW1hJywgJzIwMCcsICctaW1hZScsICc8aW5maWxlLm1hZT4nLCAnLW9tYWUnLCAnPG91dGZpbGUubWFlPic=

>  <r_lp_tautomer_probability>  (335) 
1

>  <r_epik_Ionization_Penalty>  (335) 
1.54305

>  <r_epik_Ionization_Penalty_Charging>  (335) 
0

>  <r_epik_Ionization_Penalty_Neutral>  (335) 
1.54305

>  <r_epik_State_Penalty>  (335) 
1.63562

>  <r_epik_Charging_Adjusted_Penalty>  (335) 
1.63562

>  <i_epik_Tot_Q>  (335) 
0

>  <i_epik_Tot_abs_Q>  (335) 
0

>  <s_epik_Chemistry_Notes>  (335) 
This compound contains an acetal/aminal-like group ( X-CH(R)-Y where X, Y are N, S, or O) that may be acid/base labile, releasing an aldehyde.

>  <s_lp_Force_Field>  (335) 
OPLS3e

>  <r_lp_Energy>  (335) 
183.675

>  <b_lp_Chiralities_Consistent>  (335) 
1

>  <s_lp_Variant>  (335) 
95:0-2

>  <s_i_glide_gridfile>  (335) 
pfpi4k_grid

>  <i_i_glide_lignum>  (335) 
5

>  <i_i_glide_rotatable_bonds>  (335) 
8

>  <r_i_docking_score>  (335) 
-2.9166

>  <r_i_glide_ligand_efficiency>  (335) 
-0.0595225

>  <r_i_glide_ligand_efficiency_sa>  (335) 
-0.217811

>  <r_i_glide_ligand_efficiency_ln>  (335) 
-0.59622

>  <r_i_glide_gscore>  (335) 
-2.9166

>  <r_i_glide_lipo>  (335) 
-0.750456

>  <r_i_glide_hbond>  (335) 
0

>  <r_i_glide_metal>  (335) 
-0

>  <r_i_glide_rewards>  (335) 
-0.50133

>  <r_i_glide_evdw>  (335) 
-30.7809

>  <r_i_glide_ecoul>  (335) 
-0.799944

>  <r_i_glide_erotb>  (335) 
0.0196809

>  <r_i_glide_esite>  (335) 
-0.0254634

>  <r_i_glide_emodel>  (335) 
-39.7524

>  <r_i_glide_energy>  (335) 
-31.5808

>  <r_i_glide_einternal>  (335) 
3.81827

>  <r_i_glide_intrahb_reward>  (335) 
-0.5

>  <i_i_glide_confnum>  (335) 
2

>  <i_i_glide_posenum>  (335) 
14

>  <r_i_glide_eff_state_penalty>  (335) 
0

>  <ligand_id>  (335) 
95

>  <original_smiles>  (335) 
COCC12CCC3OC4C(OC1OCOC32)N1CC2N(CC3CC3)CCC35c6c(ccc(O)c6OC3C1(OC)C4c1ccoc1)CCC25O

>  <smiles>  (335) 
[H]Oc1c([H])c([H])c2c3c1OC1([H])C4(OC([H])([H])[H])N(C([H])([H])C5([H])N(C([H])([H])C6([H])C([H])([H])C6([H])[H])C([H])([H])C([H])([H])C31C5(O[H])C([H])([H])C2([H])[H])C1([H])OC2([H])OC([H])([H])OC3([H])C([H])(OC1([H])C4([H])c1c([H])oc([H])c1[H])C([H])([H])C([H])([H])C23C([H])([H])OC([H])([H])[H]

$$$$
95:1:1
     RDKit          3D

 95105  0  0  1  0  0  0  0  0999 V2000
    5.3289   -3.1948   -2.3149 C   0  0  0  0  0  0  0  0  0  0  0  0
    4.5909   -3.9358   -1.3599 O   0  0  0  0  0  0  0  0  0  0  0  0
    5.1640   -3.9220   -0.0629 C   0  0  0  0  0  0  0  0  0  0  0  0
    4.3546   -4.8701    0.8960 C   0  0  2  0  0  0  0  0  0  0  0  0
    4.5477   -6.2973    0.3537 C   0  0  0  0  0  0  0  0  0  0  0  0
    5.6235   -6.8994    1.2735 C   0  0  0  0  0  0  0  0  0  0  0  0
    5.4132   -6.2446    2.6458 C   0  0  2  0  0  0  0  0  0  0  0  0
    4.4192   -6.9620    3.4108 O   0  0  0  0  0  0  0  0  0  0  0  0
    3.1374   -7.3593    2.8339 C   0  0  2  0  0  0  0  0  0  0  0  0
    2.0311   -6.2633    2.6087 C   0  0  2  0  0  0  0  0  0  0  0  0
    2.0114   -5.4799    1.3922 O   0  0  0  0  0  0  0  0  0  0  0  0
    2.8985   -4.3926    1.1055 C   0  0  1  0  0  0  0  0  0  0  0  0
    2.8351   -3.3546    2.0715 O   0  0  0  0  0  0  0  0  0  0  0  0
    4.0610   -2.7323    2.4692 C   0  0  0  0  0  0  0  0  0  0  0  0
    5.1784   -3.5923    2.6964 O   0  0  0  0  0  0  0  0  0  0  0  0
    4.8079   -4.8952    2.3412 C   0  0  1  0  0  0  0  0  0  0  0  0
    1.7973   -5.7152    3.9328 N   0  0  0  0  0  0  0  0  0  0  0  0
    0.7333   -4.7186    4.0889 C   0  0  0  0  0  0  0  0  0  0  0  0
    0.8204   -3.7952    5.3419 C   0  0  2  0  0  0  0  0  0  0  0  0
    2.0344   -2.9396    5.2895 N   0  0  0  0  0  0  0  0  0  0  0  0
    1.9003   -1.5476    5.7481 C   0  0  0  0  0  0  0  0  0  0  0  0
    2.6768   -0.5215    4.9197 C   0  0  0  0  0  0  0  0  0  0  0  0
    2.4325    0.9584    5.0503 C   0  0  0  0  0  0  0  0  0  0  0  0
    1.9648    0.2456    3.8067 C   0  0  0  0  0  0  0  0  0  0  0  0
    3.2324   -3.6195    5.7995 C   0  0  0  0  0  0  0  0  0  0  0  0
    3.0271   -4.3095    7.1594 C   0  0  0  0  0  0  0  0  0  0  0  0
    1.8720   -5.3514    7.0633 C   0  0  2  0  0  0  0  0  0  0  0  0
    1.6543   -6.0312    8.3819 C   0  0  0  0  0  0  0  0  0  0  0  0
    1.0202   -5.4607    9.5122 C   0  0  0  0  0  0  0  0  0  0  0  0
    0.8704   -6.2857   10.6375 C   0  0  0  0  0  0  0  0  0  0  0  0
    1.3235   -7.6288   10.5891 C   0  0  0  0  0  0  0  0  0  0  0  0
    1.9012   -8.1614    9.4071 C   0  0  0  0  0  0  0  0  0  0  0  0
    2.2615   -9.4749    9.3571 O   0  0  0  0  0  0  0  0  0  0  0  0
    2.0782   -7.3434    8.2754 C   0  0  0  0  0  0  0  0  0  0  0  0
    2.5323   -7.7104    7.0398 O   0  0  0  0  0  0  0  0  0  0  0  0
    2.3849   -6.5723    6.1821 C   0  0  1  0  0  0  0  0  0  0  0  0
    1.6903   -6.9167    4.8086 C   0  0  1  0  0  0  0  0  0  0  0  0
    0.3505   -7.3496    4.9416 O   0  0  0  0  0  0  0  0  0  0  0  0
   -0.0016   -8.3978    5.8629 C   0  0  0  0  0  0  0  0  0  0  0  0
    2.4865   -8.0599    4.0343 C   0  0  1  0  0  0  0  0  0  0  0  0
    1.7182   -9.2938    3.5645 C   0  0  0  0  0  0  0  0  0  0  0  0
    1.9265  -10.6455    4.0085 C   0  0  0  0  0  0  0  0  0  0  0  0
    1.0320  -11.4149    3.3421 C   0  0  0  0  0  0  0  0  0  0  0  0
    0.2716  -10.6689    2.5033 O   0  0  0  0  0  0  0  0  0  0  0  0
    0.7096   -9.3959    2.6501 C   0  0  0  0  0  0  0  0  0  0  0  0
    0.5643   -4.0236    9.3066 C   0  0  0  0  0  0  0  0  0  0  0  0
    0.1665   -3.6006    7.8670 C   0  0  0  0  0  0  0  0  0  0  0  0
    0.5920   -4.5514    6.6950 C   0  0  1  0  0  0  0  0  0  0  0  0
   -0.5357   -5.4076    6.5898 O   0  0  0  0  0  0  0  0  0  0  0  0
    4.8401   -3.2675   -3.2853 H   0  0  0  0  0  0  0  0  0  0  0  0
    6.3435   -3.5774   -2.4265 H   0  0  0  0  0  0  0  0  0  0  0  0
    5.3795   -2.1403   -2.0448 H   0  0  0  0  0  0  0  0  0  0  0  0
    6.1981   -4.2645   -0.1158 H   0  0  0  0  0  0  0  0  0  0  0  0
    5.2258   -2.8808    0.2391 H   0  0  0  0  0  0  0  0  0  0  0  0
    3.6266   -6.8631    0.3386 H   0  0  0  0  0  0  0  0  0  0  0  0
    4.8889   -6.2886   -0.6793 H   0  0  0  0  0  0  0  0  0  0  0  0
    5.6011   -7.9884    1.3165 H   0  0  0  0  0  0  0  0  0  0  0  0
    6.6030   -6.6067    0.8961 H   0  0  0  0  0  0  0  0  0  0  0  0
    6.3416   -6.1612    3.2123 H   0  0  0  0  0  0  0  0  0  0  0  0
    3.2364   -8.0546    2.0055 H   0  0  0  0  0  0  0  0  0  0  0  0
    1.1104   -6.7944    2.3940 H   0  0  0  0  0  0  0  0  0  0  0  0
    2.5240   -3.9446    0.1843 H   0  0  0  0  0  0  0  0  0  0  0  0
    4.3020   -1.9005    1.7984 H   0  0  0  0  0  0  0  0  0  0  0  0
    3.8381   -2.3071    3.4279 H   0  0  0  0  0  0  0  0  0  0  0  0
    4.0191   -4.9412    3.0768 H   0  0  0  0  0  0  0  0  0  0  0  0
    0.7075   -4.0694    3.2158 H   0  0  0  0  0  0  0  0  0  0  0  0
   -0.2306   -5.2214    4.0820 H   0  0  0  0  0  0  0  0  0  0  0  0
   -0.0446   -3.1415    5.2209 H   0  0  0  0  0  0  0  0  0  0  0  0
    0.8542   -1.2485    5.7289 H   0  0  0  0  0  0  0  0  0  0  0  0
    2.2509   -1.4555    6.7756 H   0  0  0  0  0  0  0  0  0  0  0  0
    3.7555   -0.6863    4.8838 H   0  0  0  0  0  0  0  0  0  0  0  0
    1.7250    1.2571    5.8213 H   0  0  0  0  0  0  0  0  0  0  0  0
    3.3228    1.5793    4.9567 H   0  0  0  0  0  0  0  0  0  0  0  0
    2.5046    0.4467    2.8811 H   0  0  0  0  0  0  0  0  0  0  0  0
    0.8901    0.1042    3.6831 H   0  0  0  0  0  0  0  0  0  0  0  0
    3.5970   -4.3499    5.0808 H   0  0  0  0  0  0  0  0  0  0  0  0
    4.0346   -2.8945    5.8814 H   0  0  0  0  0  0  0  0  0  0  0  0
    3.9587   -4.7711    7.4864 H   0  0  0  0  0  0  0  0  0  0  0  0
    2.8229   -3.5405    7.9015 H   0  0  0  0  0  0  0  0  0  0  0  0
    0.3945   -5.9188   11.5438 H   0  0  0  0  0  0  0  0  0  0  0  0
    1.2092   -8.2791   11.4378 H   0  0  0  0  0  0  0  0  0  0  0  0
    2.4661   -9.7776    8.4821 H   0  0  0  0  0  0  0  0  0  0  0  0
    3.4182   -6.3653    5.9057 H   0  0  0  0  0  0  0  0  0  0  0  0
   -0.9248   -8.8825    5.5399 H   0  0  0  0  0  0  0  0  0  0  0  0
   -0.1769   -8.0272    6.8696 H   0  0  0  0  0  0  0  0  0  0  0  0
    0.7415   -9.1858    5.9532 H   0  0  0  0  0  0  0  0  0  0  0  0
    3.2560   -8.4506    4.6958 H   0  0  0  0  0  0  0  0  0  0  0  0
    2.6335  -11.0163    4.7377 H   0  0  0  0  0  0  0  0  0  0  0  0
    0.7989  -12.4738    3.3417 H   0  0  0  0  0  0  0  0  0  0  0  0
    0.1684   -8.7059    2.0147 H   0  0  0  0  0  0  0  0  0  0  0  0
   -0.2742   -3.8472    9.9835 H   0  0  0  0  0  0  0  0  0  0  0  0
    1.3669   -3.3791    9.6658 H   0  0  0  0  0  0  0  0  0  0  0  0
   -0.9164   -3.4871    7.8494 H   0  0  0  0  0  0  0  0  0  0  0  0
    0.5359   -2.5889    7.7143 H   0  0  0  0  0  0  0  0  0  0  0  0
   -1.3207   -4.9014    6.4638 H   0  0  0  0  0  0  0  0  0  0  0  0
  1  2  1  0
  1 50  1  0
  1 51  1  0
  1 52  1  0
  2  3  1  0
  4  3  1  6
  3 53  1  0
  3 54  1  0
  4 12  1  0
  4 16  1  0
  4  5  1  0
  5  6  1  0
  5 55  1  0
  5 56  1  0
  6  7  1  0
  6 57  1  0
  6 58  1  0
  7 16  1  0
  7  8  1  0
  7 59  1  1
  8  9  1  0
  9 40  1  0
  9 10  1  0
  9 60  1  6
 10 11  1  0
 10 17  1  0
 10 61  1  6
 11 12  1  0
 12 13  1  0
 12 62  1  6
 13 14  1  0
 14 15  1  0
 14 63  1  0
 14 64  1  0
 15 16  1  0
 16 65  1  1
 17 37  1  0
 17 18  1  0
 18 19  1  0
 18 66  1  0
 18 67  1  0
 19 48  1  0
 19 20  1  0
 19 68  1  6
 20 21  1  0
 20 25  1  0
 21 22  1  0
 21 69  1  0
 21 70  1  0
 22 24  1  0
 22 23  1  0
 22 71  1  0
 23 24  1  0
 23 72  1  0
 23 73  1  0
 24 74  1  0
 24 75  1  0
 25 26  1  0
 25 76  1  0
 25 77  1  0
 27 26  1  1
 26 78  1  0
 26 79  1  0
 27 36  1  0
 27 48  1  0
 27 28  1  0
 28 34  2  0
 28 29  1  0
 29 30  2  0
 29 46  1  0
 30 31  1  0
 30 80  1  0
 31 32  2  0
 31 81  1  0
 32 33  1  0
 32 34  1  0
 33 82  1  0
 34 35  1  0
 35 36  1  0
 36 37  1  0
 36 83  1  6
 37 38  1  1
 37 40  1  0
 38 39  1  0
 39 84  1  0
 39 85  1  0
 39 86  1  0
 40 41  1  0
 40 87  1  1
 41 45  2  0
 41 42  1  0
 42 43  2  0
 42 88  1  0
 43 44  1  0
 43 89  1  0
 44 45  1  0
 45 90  1  0
 46 47  1  0
 46 91  1  0
 46 92  1  0
 47 48  1  0
 47 93  1  0
 47 94  1  0
 48 49  1  6
 49 95  1  0
M  END
>  <i_m_ct_stereo_status>  (336) 
1

>  <s_m_source_file>  (336) 
/var/tmp/pbs.5083858.sched01/tmpwjm1f1st/135fnrmq3q8.sdf

>  <i_m_source_file_index>  (336) 
5

>  <i_lp_mmshare_version>  (336) 
48012

>  <i_f3d_flags>  (336) 
0

>  <s_epik_input>  (336) 
TzFbQ0gyXU9bQ0BIXShPMilbQ0BAXShbQ0gyXVtDSDJdMykoW0NIMl1PW0NIM10pW0NASF0xW0NASF0zT1tDQEBIXShbQ0BASF00YzVbY0hdW2NIXW9bY0hdNSlbQ0BIXTJOKFtDSDJdW0NAQEhdKFtDQF02KFtPSF0pW0NIMl1bQ0gyXTcpTihbQ0gyXVtDSDJdOClbQ0gyXVtDSF05W0NIMl1bQ0gyXTkpW0NAXTQoT1tDSDNdKVtDQEBIXTFPYzJjKFtPSF0pW2NIXVtjSF1jN2MyW0NAQF0xNjg=

>  <s_epik_cmdline>  (336) 
J2VwaWtfcHl0aG9uJywgJy1waHQnLCAnMi4wJywgJy1waCcsICc3LjAnLCAnLXRuJywgJzgnLCAnLW1hJywgJzIwMCcsICctaW1hZScsICc8aW5maWxlLm1hZT4nLCAnLW9tYWUnLCAnPG91dGZpbGUubWFlPic=

>  <r_lp_tautomer_probability>  (336) 
1

>  <r_epik_Ionization_Penalty>  (336) 
1.54305

>  <r_epik_Ionization_Penalty_Charging>  (336) 
0

>  <r_epik_Ionization_Penalty_Neutral>  (336) 
1.54305

>  <r_epik_State_Penalty>  (336) 
1.63562

>  <r_epik_Charging_Adjusted_Penalty>  (336) 
1.63562

>  <i_epik_Tot_Q>  (336) 
0

>  <i_epik_Tot_abs_Q>  (336) 
0

>  <s_epik_Chemistry_Notes>  (336) 
This compound contains an acetal/aminal-like group ( X-CH(R)-Y where X, Y are N, S, or O) that may be acid/base labile, releasing an aldehyde.

>  <s_lp_Force_Field>  (336) 
OPLS3e

>  <r_lp_Energy>  (336) 
183.675

>  <b_lp_Chiralities_Consistent>  (336) 
1

>  <s_lp_Variant>  (336) 
95:0-2

>  <s_i_glide_gridfile>  (336) 
pfpi4k_grid

>  <i_i_glide_lignum>  (336) 
5

>  <i_i_glide_rotatable_bonds>  (336) 
8

>  <r_i_docking_score>  (336) 
-2.38833

>  <r_i_glide_ligand_efficiency>  (336) 
-0.0487414

>  <r_i_glide_ligand_efficiency_sa>  (336) 
-0.17836

>  <r_i_glide_ligand_efficiency_ln>  (336) 
-0.488229

>  <r_i_glide_gscore>  (336) 
-2.38833

>  <r_i_glide_lipo>  (336) 
-0.736236

>  <r_i_glide_hbond>  (336) 
-0.0234442

>  <r_i_glide_metal>  (336) 
-0

>  <r_i_glide_rewards>  (336) 
-0.001239

>  <r_i_glide_evdw>  (336) 
-30.9567

>  <r_i_glide_ecoul>  (336) 
-0.481777

>  <r_i_glide_erotb>  (336) 
0.0196809

>  <r_i_glide_esite>  (336) 
-0.0269897

>  <r_i_glide_emodel>  (336) 
-33.6479

>  <r_i_glide_energy>  (336) 
-31.4384

>  <r_i_glide_einternal>  (336) 
3.82991

>  <r_i_glide_intrahb_reward>  (336) 
-0

>  <i_i_glide_confnum>  (336) 
2

>  <i_i_glide_posenum>  (336) 
32

>  <r_i_glide_eff_state_penalty>  (336) 
0

>  <ligand_id>  (336) 
95

>  <original_smiles>  (336) 
COCC12CCC3OC4C(OC1OCOC32)N1CC2N(CC3CC3)CCC35c6c(ccc(O)c6OC3C1(OC)C4c1ccoc1)CCC25O

>  <smiles>  (336) 
[H]Oc1c([H])c([H])c2c3c1OC1([H])C4(OC([H])([H])[H])N(C([H])([H])C5([H])N(C([H])([H])C6([H])C([H])([H])C6([H])[H])C([H])([H])C([H])([H])C31C5(O[H])C([H])([H])C2([H])[H])C1([H])OC2([H])OC([H])([H])OC3([H])C([H])(OC1([H])C4([H])c1c([H])oc([H])c1[H])C([H])([H])C([H])([H])C23C([H])([H])OC([H])([H])[H]

$$$$
95:1:2
     RDKit          3D

 95105  0  0  1  0  0  0  0  0999 V2000
   -0.2102   -9.5444   12.2645 C   0  0  0  0  0  0  0  0  0  0  0  0
   -0.1227   -8.5689   11.2357 O   0  0  0  0  0  0  0  0  0  0  0  0
    1.1912   -8.4449   10.6983 C   0  0  0  0  0  0  0  0  0  0  0  0
    1.2328   -7.3122    9.6166 C   0  0  2  0  0  0  0  0  0  0  0  0
    1.0011   -5.9910   10.3879 C   0  0  0  0  0  0  0  0  0  0  0  0
    2.4108   -5.3861   10.5185 C   0  0  0  0  0  0  0  0  0  0  0  0
    3.1658   -5.8337    9.2583 C   0  0  2  0  0  0  0  0  0  0  0  0
    2.9252   -4.9135    8.1690 O   0  0  0  0  0  0  0  0  0  0  0  0
    1.5835   -4.4532    7.8129 C   0  0  2  0  0  0  0  0  0  0  0  0
    0.6017   -5.4395    7.0816 C   0  0  2  0  0  0  0  0  0  0  0  0
   -0.1872   -6.3837    7.8401 O   0  0  0  0  0  0  0  0  0  0  0  0
    0.3015   -7.5982    8.4142 C   0  0  1  0  0  0  0  0  0  0  0  0
    0.8988   -8.4848    7.4635 O   0  0  0  0  0  0  0  0  0  0  0  0
    2.0800   -9.1934    7.8626 C   0  0  0  0  0  0  0  0  0  0  0  0
    3.0739   -8.4203    8.5435 O   0  0  0  0  0  0  0  0  0  0  0  0
    2.5340   -7.1542    8.8585 C   0  0  1  0  0  0  0  0  0  0  0  0
    1.2924   -5.7842    5.8498 N   0  0  0  0  0  0  0  0  0  0  0  0
    0.6041   -6.6414    4.8727 C   0  0  0  0  0  0  0  0  0  0  0  0
    1.5173   -7.3955    3.8573 C   0  0  2  0  0  0  0  0  0  0  0  0
    2.3947   -8.3590    4.5686 N   0  0  0  0  0  0  0  0  0  0  0  0
    2.5920   -9.6844    3.9755 C   0  0  0  0  0  0  0  0  0  0  0  0
    1.3392  -10.5266    3.8201 C   0  0  0  0  0  0  0  0  0  0  0  0
    1.2008  -11.8143    4.6040 C   0  0  0  0  0  0  0  0  0  0  0  0
    1.4447  -11.8572    3.1183 C   0  0  0  0  0  0  0  0  0  0  0  0
    3.6427   -7.7697    5.0657 C   0  0  0  0  0  0  0  0  0  0  0  0
    4.3880   -6.9034    4.0396 C   0  0  0  0  0  0  0  0  0  0  0  0
    3.4564   -5.7631    3.5369 C   0  0  2  0  0  0  0  0  0  0  0  0
    4.1587   -4.8975    2.5324 C   0  0  0  0  0  0  0  0  0  0  0  0
    4.4267   -5.2463    1.2007 C   0  0  0  0  0  0  0  0  0  0  0  0
    5.0531   -4.2681    0.4054 C   0  0  0  0  0  0  0  0  0  0  0  0
    5.3559   -2.9980    0.9614 C   0  0  0  0  0  0  0  0  0  0  0  0
    5.0164   -2.6929    2.3025 C   0  0  0  0  0  0  0  0  0  0  0  0
    5.2631   -1.4500    2.8094 O   0  0  0  0  0  0  0  0  0  0  0  0
    4.4018   -3.6638    3.1150 C   0  0  0  0  0  0  0  0  0  0  0  0
    3.9190   -3.5175    4.3847 O   0  0  0  0  0  0  0  0  0  0  0  0
    3.2494   -4.7343    4.7319 C   0  0  1  0  0  0  0  0  0  0  0  0
    1.8083   -4.4882    5.3280 C   0  0  1  0  0  0  0  0  0  0  0  0
    0.9150   -3.9231    4.3906 O   0  0  0  0  0  0  0  0  0  0  0  0
    1.2685   -2.7454    3.6479 C   0  0  0  0  0  0  0  0  0  0  0  0
    1.8744   -3.5360    6.6074 C   0  0  1  0  0  0  0  0  0  0  0  0
    0.9743   -2.2971    6.6734 C   0  0  0  0  0  0  0  0  0  0  0  0
    1.3193   -1.0365    7.2476 C   0  0  0  0  0  0  0  0  0  0  0  0
    0.2460   -0.2102    7.0864 C   0  0  0  0  0  0  0  0  0  0  0  0
   -0.7671   -0.8621    6.4633 O   0  0  0  0  0  0  0  0  0  0  0  0
   -0.3151   -2.1219    6.2330 C   0  0  0  0  0  0  0  0  0  0  0  0
    3.9606   -6.6360    0.7952 C   0  0  0  0  0  0  0  0  0  0  0  0
    2.7034   -7.1883    1.5209 C   0  0  0  0  0  0  0  0  0  0  0  0
    2.2590   -6.4679    2.8411 C   0  0  1  0  0  0  0  0  0  0  0  0
    1.3702   -5.5178    2.2950 O   0  0  0  0  0  0  0  0  0  0  0  0
   -1.2310   -9.5944   12.6416 H   0  0  0  0  0  0  0  0  0  0  0  0
    0.4415   -9.3043   13.1055 H   0  0  0  0  0  0  0  0  0  0  0  0
    0.0546  -10.5346   11.8936 H   0  0  0  0  0  0  0  0  0  0  0  0
    1.8834   -8.1945   11.5068 H   0  0  0  0  0  0  0  0  0  0  0  0
    1.5072   -9.4234   10.3520 H   0  0  0  0  0  0  0  0  0  0  0  0
    0.2975   -5.3209    9.9081 H   0  0  0  0  0  0  0  0  0  0  0  0
    0.5779   -6.1492   11.3805 H   0  0  0  0  0  0  0  0  0  0  0  0
    2.4076   -4.3023   10.6519 H   0  0  0  0  0  0  0  0  0  0  0  0
    2.8979   -5.8110   11.3966 H   0  0  0  0  0  0  0  0  0  0  0  0
    4.2349   -5.9329    9.4350 H   0  0  0  0  0  0  0  0  0  0  0  0
    1.1114   -3.8846    8.6101 H   0  0  0  0  0  0  0  0  0  0  0  0
   -0.2393   -4.8296    6.7582 H   0  0  0  0  0  0  0  0  0  0  0  0
   -0.5852   -8.1222    8.7678 H   0  0  0  0  0  0  0  0  0  0  0  0
    1.8040  -10.0817    8.4312 H   0  0  0  0  0  0  0  0  0  0  0  0
    2.5344   -9.5969    6.9600 H   0  0  0  0  0  0  0  0  0  0  0  0
    2.4210   -6.9099    7.8157 H   0  0  0  0  0  0  0  0  0  0  0  0
    0.0202   -7.3968    5.4039 H   0  0  0  0  0  0  0  0  0  0  0  0
   -0.1457   -6.0635    4.3305 H   0  0  0  0  0  0  0  0  0  0  0  0
    0.8112   -7.9522    3.2441 H   0  0  0  0  0  0  0  0  0  0  0  0
    3.1231   -9.6421    3.0311 H   0  0  0  0  0  0  0  0  0  0  0  0
    3.2606  -10.2583    4.6175 H   0  0  0  0  0  0  0  0  0  0  0  0
    0.4143   -9.9864    3.6302 H   0  0  0  0  0  0  0  0  0  0  0  0
    2.0193  -12.0936    5.2660 H   0  0  0  0  0  0  0  0  0  0  0  0
    0.2075  -12.0704    4.9629 H   0  0  0  0  0  0  0  0  0  0  0  0
    0.6137  -12.1667    2.4886 H   0  0  0  0  0  0  0  0  0  0  0  0
    2.4290  -12.1792    2.7803 H   0  0  0  0  0  0  0  0  0  0  0  0
    3.4388   -7.1778    5.9509 H   0  0  0  0  0  0  0  0  0  0  0  0
    4.3053   -8.5555    5.4188 H   0  0  0  0  0  0  0  0  0  0  0  0
    5.2998   -6.5018    4.4809 H   0  0  0  0  0  0  0  0  0  0  0  0
    4.7214   -7.5472    3.2290 H   0  0  0  0  0  0  0  0  0  0  0  0
    5.2859   -4.4747   -0.6297 H   0  0  0  0  0  0  0  0  0  0  0  0
    5.8239   -2.2493    0.3432 H   0  0  0  0  0  0  0  0  0  0  0  0
    5.6617   -0.8681    2.1830 H   0  0  0  0  0  0  0  0  0  0  0  0
    3.8319   -5.0805    5.5835 H   0  0  0  0  0  0  0  0  0  0  0  0
    0.3652   -2.2060    3.3662 H   0  0  0  0  0  0  0  0  0  0  0  0
    1.7805   -2.9876    2.7213 H   0  0  0  0  0  0  0  0  0  0  0  0
    1.8892   -2.0442    4.2021 H   0  0  0  0  0  0  0  0  0  0  0  0
    2.8862   -3.1389    6.6837 H   0  0  0  0  0  0  0  0  0  0  0  0
    2.2516   -0.7579    7.7169 H   0  0  0  0  0  0  0  0  0  0  0  0
    0.0485    0.8226    7.3422 H   0  0  0  0  0  0  0  0  0  0  0  0
   -1.0155   -2.7575    5.7134 H   0  0  0  0  0  0  0  0  0  0  0  0
    3.7970   -6.6367   -0.2817 H   0  0  0  0  0  0  0  0  0  0  0  0
    4.7969   -7.3150    0.9559 H   0  0  0  0  0  0  0  0  0  0  0  0
    1.8648   -7.1941    0.8274 H   0  0  0  0  0  0  0  0  0  0  0  0
    2.8784   -8.2438    1.6674 H   0  0  0  0  0  0  0  0  0  0  0  0
    1.9130   -4.8429    1.9116 H   0  0  0  0  0  0  0  0  0  0  0  0
  1  2  1  0
  1 50  1  0
  1 51  1  0
  1 52  1  0
  2  3  1  0
  4  3  1  1
  3 53  1  0
  3 54  1  0
  4 12  1  0
  4 16  1  0
  4  5  1  0
  5  6  1  0
  5 55  1  0
  5 56  1  0
  6  7  1  0
  6 57  1  0
  6 58  1  0
  7 16  1  0
  7  8  1  0
  7 59  1  1
  8  9  1  0
  9 40  1  0
  9 10  1  0
  9 60  1  1
 10 11  1  0
 10 17  1  0
 10 61  1  6
 11 12  1  0
 12 13  1  0
 12 62  1  1
 13 14  1  0
 14 15  1  0
 14 63  1  0
 14 64  1  0
 15 16  1  0
 16 65  1  6
 17 37  1  0
 17 18  1  0
 18 19  1  0
 18 66  1  0
 18 67  1  0
 19 48  1  0
 19 20  1  0
 19 68  1  6
 20 21  1  0
 20 25  1  0
 21 22  1  0
 21 69  1  0
 21 70  1  0
 22 24  1  0
 22 23  1  0
 22 71  1  0
 23 24  1  0
 23 72  1  0
 23 73  1  0
 24 74  1  0
 24 75  1  0
 25 26  1  0
 25 76  1  0
 25 77  1  0
 27 26  1  1
 26 78  1  0
 26 79  1  0
 27 36  1  0
 27 48  1  0
 27 28  1  0
 28 34  2  0
 28 29  1  0
 29 30  2  0
 29 46  1  0
 30 31  1  0
 30 80  1  0
 31 32  2  0
 31 81  1  0
 32 33  1  0
 32 34  1  0
 33 82  1  0
 34 35  1  0
 35 36  1  0
 36 37  1  0
 36 83  1  1
 37 38  1  6
 37 40  1  0
 38 39  1  0
 39 84  1  0
 39 85  1  0
 39 86  1  0
 40 41  1  0
 40 87  1  1
 41 45  2  0
 41 42  1  0
 42 43  2  0
 42 88  1  0
 43 44  1  0
 43 89  1  0
 44 45  1  0
 45 90  1  0
 46 47  1  0
 46 91  1  0
 46 92  1  0
 47 48  1  0
 47 93  1  0
 47 94  1  0
 48 49  1  6
 49 95  1  0
M  END
>  <i_m_ct_stereo_status>  (337) 
1

>  <s_m_source_file>  (337) 
/var/tmp/pbs.5083858.sched01/tmpwjm1f1st/135fnrmq3q8.sdf

>  <i_m_source_file_index>  (337) 
5

>  <i_lp_mmshare_version>  (337) 
48012

>  <i_f3d_flags>  (337) 
0

>  <s_epik_input>  (337) 
TzFbQ0gyXU9bQ0BIXShPMilbQ0BAXShbQ0gyXVtDSDJdMykoW0NIMl1PW0NIM10pW0NASF0xW0NASF0zT1tDQEBIXShbQ0BASF00YzVbY0hdW2NIXW9bY0hdNSlbQ0BIXTJOKFtDSDJdW0NAQEhdKFtDQF02KFtPSF0pW0NIMl1bQ0gyXTcpTihbQ0gyXVtDSDJdOClbQ0gyXVtDSF05W0NIMl1bQ0gyXTkpW0NAXTQoT1tDSDNdKVtDQEBIXTFPYzJjKFtPSF0pW2NIXVtjSF1jN2MyW0NAQF0xNjg=

>  <s_epik_cmdline>  (337) 
J2VwaWtfcHl0aG9uJywgJy1waHQnLCAnMi4wJywgJy1waCcsICc3LjAnLCAnLXRuJywgJzgnLCAnLW1hJywgJzIwMCcsICctaW1hZScsICc8aW5maWxlLm1hZT4nLCAnLW9tYWUnLCAnPG91dGZpbGUubWFlPic=

>  <r_lp_tautomer_probability>  (337) 
1

>  <r_epik_Ionization_Penalty>  (337) 
1.54305

>  <r_epik_Ionization_Penalty_Charging>  (337) 
0

>  <r_epik_Ionization_Penalty_Neutral>  (337) 
1.54305

>  <r_epik_State_Penalty>  (337) 
1.63562

>  <r_epik_Charging_Adjusted_Penalty>  (337) 
1.63562

>  <i_epik_Tot_Q>  (337) 
0

>  <i_epik_Tot_abs_Q>  (337) 
0

>  <s_epik_Chemistry_Notes>  (337) 
This compound contains an acetal/aminal-like group ( X-CH(R)-Y where X, Y are N, S, or O) that may be acid/base labile, releasing an aldehyde.

>  <s_lp_Force_Field>  (337) 
OPLS3e

>  <r_lp_Energy>  (337) 
183.675

>  <b_lp_Chiralities_Consistent>  (337) 
1

>  <s_lp_Variant>  (337) 
95:0-2

>  <s_i_glide_gridfile>  (337) 
pfpi4k_grid

>  <i_i_glide_lignum>  (337) 
5

>  <i_i_glide_rotatable_bonds>  (337) 
8

>  <r_i_docking_score>  (337) 
-2.36876

>  <r_i_glide_ligand_efficiency>  (337) 
-0.048342

>  <r_i_glide_ligand_efficiency_sa>  (337) 
-0.176898

>  <r_i_glide_ligand_efficiency_ln>  (337) 
-0.484229

>  <r_i_glide_gscore>  (337) 
-2.36876

>  <r_i_glide_lipo>  (337) 
-0.407699

>  <r_i_glide_hbond>  (337) 
-0.0265062

>  <r_i_glide_metal>  (337) 
-0

>  <r_i_glide_rewards>  (337) 
-6.37827e-05

>  <r_i_glide_evdw>  (337) 
-28.2834

>  <r_i_glide_ecoul>  (337) 
-2.9525

>  <r_i_glide_erotb>  (337) 
0.0196809

>  <r_i_glide_esite>  (337) 
-0.0971267

>  <r_i_glide_emodel>  (337) 
-35.413

>  <r_i_glide_energy>  (337) 
-31.2359

>  <r_i_glide_einternal>  (337) 
1.00696

>  <r_i_glide_intrahb_reward>  (337) 
-0

>  <i_i_glide_confnum>  (337) 
1

>  <i_i_glide_posenum>  (337) 
2

>  <r_i_glide_eff_state_penalty>  (337) 
0

>  <ligand_id>  (337) 
95

>  <original_smiles>  (337) 
COCC12CCC3OC4C(OC1OCOC32)N1CC2N(CC3CC3)CCC35c6c(ccc(O)c6OC3C1(OC)C4c1ccoc1)CCC25O

>  <smiles>  (337) 
[H]Oc1c([H])c([H])c2c3c1OC1([H])C4(OC([H])([H])[H])N(C([H])([H])C5([H])N(C([H])([H])C6([H])C([H])([H])C6([H])[H])C([H])([H])C([H])([H])C31C5(O[H])C([H])([H])C2([H])[H])C1([H])OC2([H])OC([H])([H])OC3([H])C([H])(OC1([H])C4([H])c1c([H])oc([H])c1[H])C([H])([H])C([H])([H])C23C([H])([H])OC([H])([H])[H]

$$$$
96:0:0
     RDKit          3D

108115  0  0  1  0  0  0  0  0999 V2000
    4.6896   -0.6578    0.5290 C   0  0  0  0  0  0  0  0  0  0  0  0
    4.2057   -1.9800    1.0850 C   0  0  0  0  0  0  0  0  0  0  0  0
    3.9902   -3.1149    0.3484 C   0  0  0  0  0  0  0  0  0  0  0  0
    4.2021   -3.1832   -1.1443 C   0  0  0  0  0  0  0  0  0  0  0  0
    3.6096   -4.3973    1.0234 C   0  0  0  0  0  0  0  0  0  0  0  0
    3.5715   -5.4823    0.4588 O   0  0  0  0  0  0  0  0  0  0  0  0
    3.3679   -4.3044    2.3489 O   0  0  0  0  0  0  0  0  0  0  0  0
    3.0505   -3.0788    3.0184 C   0  0  1  0  0  0  0  0  0  0  0  0
    3.0429   -3.3648    4.5634 C   0  0  1  0  0  0  0  0  0  0  0  0
    4.5515   -3.7723    4.9054 C   0  0  0  0  0  0  0  0  0  0  0  0
    2.5896   -2.1255    5.3999 C   0  0  1  0  0  0  0  0  0  0  0  0
    1.5048   -1.2444    4.6960 C   0  0  0  0  0  0  0  0  0  0  0  0
    0.8711   -0.1470    5.6037 C   0  0  1  0  0  0  0  0  0  0  0  0
    1.8656    0.8138    6.5225 C   0  0  0  0  0  0  0  0  0  0  0  0
    2.1007    2.4213    6.7485 C   0  0  1  0  0  0  0  0  0  0  0  0
    3.4295    2.5846    6.3377 O   0  0  0  0  0  0  0  0  0  0  0  0
    1.0988    3.7523    6.5040 C   0  0  1  0  0  0  0  0  0  0  0  0
    1.5229    4.6970    5.3396 C   0  0  1  0  0  0  0  0  0  0  0  0
    2.9349    5.4253    5.4189 C   0  0  0  0  0  0  0  0  0  0  0  0
    2.9593    6.7750    4.6671 C   0  0  0  0  0  0  0  0  0  0  0  0
    3.3729    5.7054    6.8751 C   0  0  0  0  0  0  0  0  0  0  0  0
    3.9601    4.6707    4.8057 O   0  0  0  0  0  0  0  0  0  0  0  0
    1.0725    3.9843    4.0425 C   0  0  1  0  0  0  0  0  0  0  0  0
    1.8349    4.3577    2.9559 O   0  0  0  0  0  0  0  0  0  0  0  0
    0.6848    2.4373    4.2868 C   0  0  1  0  0  0  0  0  0  0  0  0
    1.9706    1.7158    3.6042 C   0  0  0  0  0  0  0  0  0  0  0  0
   -0.2222    1.7348    5.5544 C   0  0  2  0  0  0  0  0  0  0  0  0
   -0.9569    2.3005    6.8289 C   0  0  0  0  0  0  0  0  0  0  0  0
   -2.5444    2.1149    6.9688 C   0  0  0  0  0  0  0  0  0  0  0  0
   -0.5501    1.7657    8.2289 C   0  0  0  0  0  0  0  0  0  0  0  0
   -0.5537    3.7198    6.5143 C   0  0  1  0  0  0  0  0  0  0  0  0
   -1.0402    4.7195    7.5954 C   0  0  0  0  0  0  0  0  0  0  0  0
   -1.4466    4.0217    5.1622 C   0  0  0  0  0  0  0  0  0  0  0  0
   -1.5833    3.0115    3.8532 C   0  0  0  0  0  0  0  0  0  0  0  0
   -0.4280    1.8446    3.6405 C   0  0  1  0  0  0  0  0  0  0  0  0
   -0.7705    0.4076    3.3626 C   0  0  0  0  0  0  0  0  0  0  0  0
   -0.3187    0.6013    4.7915 C   0  0  2  0  0  0  0  0  0  0  0  0
    0.2483   -0.9772    6.6043 O   0  0  0  0  0  0  0  0  0  0  0  0
    1.1473   -1.6685    7.4762 C   0  0  1  0  0  0  0  0  0  0  0  0
    0.4761   -2.2901    8.5006 O   0  0  0  0  0  0  0  0  0  0  0  0
    2.0616   -2.6967    6.7310 C   0  0  2  0  0  0  0  0  0  0  0  0
    3.2494   -3.1259    7.6420 C   0  0  0  0  0  0  0  0  0  0  0  0
    2.9502   -3.4340    8.9872 O   0  0  0  0  0  0  0  0  0  0  0  0
    1.2376   -3.9117    6.2770 C   0  0  0  0  0  0  0  0  0  0  0  0
    1.9575   -4.4429    4.9999 C   0  0  1  0  0  0  0  0  0  0  0  0
    0.8649   -4.7935    3.9606 C   0  0  0  0  0  0  0  0  0  0  0  0
    2.5821   -5.6699    5.3483 O   0  0  0  0  0  0  0  0  0  0  0  0
    4.0267   -1.9536    2.5768 C   0  0  0  0  0  0  0  0  0  0  0  0
    5.4874   -0.2536    1.1697 H   0  0  0  0  0  0  0  0  0  0  0  0
    3.8477    0.0416    0.5254 H   0  0  0  0  0  0  0  0  0  0  0  0
    5.0821   -0.7545   -0.4785 H   0  0  0  0  0  0  0  0  0  0  0  0
    3.5140   -3.8993   -1.6112 H   0  0  0  0  0  0  0  0  0  0  0  0
    5.2412   -3.4787   -1.3297 H   0  0  0  0  0  0  0  0  0  0  0  0
    4.0209   -2.2032   -1.5964 H   0  0  0  0  0  0  0  0  0  0  0  0
    2.0494   -2.8129    2.6579 H   0  0  0  0  0  0  0  0  0  0  0  0
    4.7480   -4.3291    5.8109 H   0  0  0  0  0  0  0  0  0  0  0  0
    5.1917   -2.8787    4.9469 H   0  0  0  0  0  0  0  0  0  0  0  0
    4.9747   -4.3877    4.0945 H   0  0  0  0  0  0  0  0  0  0  0  0
    3.4386   -1.4714    5.5499 H   0  0  0  0  0  0  0  0  0  0  0  0
    1.8981   -0.7832    3.8077 H   0  0  0  0  0  0  0  0  0  0  0  0
    0.6583   -1.8414    4.3559 H   0  0  0  0  0  0  0  0  0  0  0  0
    1.5274    0.6560    7.5158 H   0  0  0  0  0  0  0  0  0  0  0  0
    2.8554    0.3649    6.5228 H   0  0  0  0  0  0  0  0  0  0  0  0
    2.2797    2.5255    7.8193 H   0  0  0  0  0  0  0  0  0  0  0  0
    3.4326    2.6602    5.4019 H   0  0  0  0  0  0  0  0  0  0  0  0
    1.3024    4.3182    7.4192 H   0  0  0  0  0  0  0  0  0  0  0  0
    0.8570    5.5562    5.4397 H   0  0  0  0  0  0  0  0  0  0  0  0
    2.6067    7.5896    5.3003 H   0  0  0  0  0  0  0  0  0  0  0  0
    2.3629    6.7665    3.7585 H   0  0  0  0  0  0  0  0  0  0  0  0
    3.9771    7.0336    4.3808 H   0  0  0  0  0  0  0  0  0  0  0  0
    2.6240    6.3057    7.3980 H   0  0  0  0  0  0  0  0  0  0  0  0
    4.3187    6.2443    6.9114 H   0  0  0  0  0  0  0  0  0  0  0  0
    3.5210    4.7972    7.4624 H   0  0  0  0  0  0  0  0  0  0  0  0
    3.6859    4.4816    3.9236 H   0  0  0  0  0  0  0  0  0  0  0  0
    0.2664    4.5553    3.6185 H   0  0  0  0  0  0  0  0  0  0  0  0
    1.2600    4.2820    2.1611 H   0  0  0  0  0  0  0  0  0  0  0  0
    1.6886    1.0228    2.8073 H   0  0  0  0  0  0  0  0  0  0  0  0
    2.6458    1.2132    4.2880 H   0  0  0  0  0  0  0  0  0  0  0  0
    2.6839    2.3380    3.0868 H   0  0  0  0  0  0  0  0  0  0  0  0
   -1.2850    1.4343    5.5002 H   0  0  0  0  0  0  0  0  0  0  0  0
   -2.9687    2.7451    7.7366 H   0  0  0  0  0  0  0  0  0  0  0  0
   -2.8006    1.0841    7.2332 H   0  0  0  0  0  0  0  0  0  0  0  0
   -3.1211    2.3261    6.0671 H   0  0  0  0  0  0  0  0  0  0  0  0
   -1.2775    2.0414    9.0091 H   0  0  0  0  0  0  0  0  0  0  0  0
    0.3824    2.1562    8.6165 H   0  0  0  0  0  0  0  0  0  0  0  0
   -0.5248    0.6722    8.2315 H   0  0  0  0  0  0  0  0  0  0  0  0
   -2.1256    4.7876    7.6679 H   0  0  0  0  0  0  0  0  0  0  0  0
   -0.6773    5.7258    7.3731 H   0  0  0  0  0  0  0  0  0  0  0  0
   -0.6670    4.4598    8.5899 H   0  0  0  0  0  0  0  0  0  0  0  0
   -2.4787    4.1602    5.4464 H   0  0  0  0  0  0  0  0  0  0  0  0
   -1.2436    5.0271    4.8324 H   0  0  0  0  0  0  0  0  0  0  0  0
   -2.5502    2.4941    3.8894 H   0  0  0  0  0  0  0  0  0  0  0  0
   -1.6279    3.6037    2.9377 H   0  0  0  0  0  0  0  0  0  0  0  0
   -1.7742    0.1650    3.1318 H   0  0  0  0  0  0  0  0  0  0  0  0
   -0.1015   -0.0510    2.6133 H   0  0  0  0  0  0  0  0  0  0  0  0
    1.8507   -1.0137    8.0111 H   0  0  0  0  0  0  0  0  0  0  0  0
    1.1078   -2.6658    9.0981 H   0  0  0  0  0  0  0  0  0  0  0  0
    3.6875   -4.0210    7.2808 H   0  0  0  0  0  0  0  0  0  0  0  0
    3.9960   -2.3244    7.6584 H   0  0  0  0  0  0  0  0  0  0  0  0
    3.7167   -3.8724    9.3168 H   0  0  0  0  0  0  0  0  0  0  0  0
    1.1412   -4.6475    7.0739 H   0  0  0  0  0  0  0  0  0  0  0  0
    0.2214   -3.5874    6.0470 H   0  0  0  0  0  0  0  0  0  0  0  0
    0.3750   -3.8953    3.5910 H   0  0  0  0  0  0  0  0  0  0  0  0
    0.0904   -5.4109    4.4079 H   0  0  0  0  0  0  0  0  0  0  0  0
    1.2620   -5.3410    3.1043 H   0  0  0  0  0  0  0  0  0  0  0  0
    3.0547   -5.9902    4.5994 H   0  0  0  0  0  0  0  0  0  0  0  0
    5.0368   -2.0744    2.9813 H   0  0  0  0  0  0  0  0  0  0  0  0
    3.6648   -0.9653    2.8825 H   0  0  0  0  0  0  0  0  0  0  0  0
  1  2  1  0
  1 49  1  0
  1 50  1  0
  1 51  1  0
  2 48  1  0
  2  3  2  0
  3  4  1  0
  3  5  1  0
  4 52  1  0
  4 53  1  0
  4 54  1  0
  5  6  2  0
  5  7  1  0
  7  8  1  0
  8  9  1  0
  8 48  1  0
  8 55  1  6
  9 45  1  0
  9 10  1  1
  9 11  1  0
 10 56  1  0
 10 57  1  0
 10 58  1  0
 11 41  1  0
 11 12  1  0
 11 59  1  1
 12 13  1  0
 12 60  1  0
 12 61  1  0
 13 37  1  0
 13 14  1  0
 13 38  1  1
 14 15  1  0
 14 62  1  0
 14 63  1  0
 15 16  1  0
 15 17  1  0
 15 64  1  1
 16 65  1  0
 17 31  1  0
 17 18  1  0
 17 66  1  1
 18 19  1  0
 18 23  1  0
 18 67  1  1
 19 20  1  0
 19 21  1  0
 19 22  1  0
 20 68  1  0
 20 69  1  0
 20 70  1  0
 21 71  1  0
 21 72  1  0
 21 73  1  0
 22 74  1  0
 23 24  1  0
 23 25  1  0
 23 75  1  6
 24 76  1  0
 25 35  1  0
 25 26  1  6
 25 27  1  0
 26 77  1  0
 26 78  1  0
 26 79  1  0
 27 37  1  0
 27 28  1  0
 27 80  1  1
 28 29  1  0
 28 30  1  0
 28 31  1  0
 29 81  1  0
 29 82  1  0
 29 83  1  0
 30 84  1  0
 30 85  1  0
 30 86  1  0
 31 32  1  1
 31 33  1  0
 32 87  1  0
 32 88  1  0
 32 89  1  0
 33 34  1  0
 33 90  1  0
 33 91  1  0
 34 35  1  0
 34 92  1  0
 34 93  1  0
 35 37  1  0
 35 36  1  6
 37 36  1  1
 36 94  1  0
 36 95  1  0
 38 39  1  0
 39 40  1  0
 39 41  1  0
 39 96  1  1
 40 97  1  0
 41 42  1  1
 41 44  1  0
 42 43  1  0
 42 98  1  0
 42 99  1  0
 43100  1  0
 44 45  1  0
 44101  1  0
 44102  1  0
 45 46  1  0
 45 47  1  1
 46103  1  0
 46104  1  0
 46105  1  0
 47106  1  0
 48107  1  0
 48108  1  0
M  END
>  <i_m_ct_stereo_status>  (338) 
1

>  <s_m_source_file>  (338) 
/var/tmp/pbs.5083858.sched01/tmpidrm27xv/140qfbh568q.sdf

>  <i_m_source_file_index>  (338) 
1

>  <i_lp_mmshare_version>  (338) 
48012

>  <i_f3d_flags>  (338) 
0

>  <s_epik_input>  (338) 
W0NIM11DMT1DKFtDSDNdKUMoPU8pT1tDQEhdKFtDSDJdMSlbQ0BdMihbQ0gzXSlbQ0BAXShbQ0gzXSkoW09IXSlbQ0gyXVtDQEBdKFtDQEBIXShPMylbT0hdKShbQ0gyXVtPSF0pW0NAQEhdMltDSDJdW0NAQF0zNFtDQF01NltDQF03KFtDSDJdNilbQ0BdOChbQ0gzXSlbQ0BASF01QyhbQ0gzXSkoW0NIM10pW0NAXShbQ0gzXSkoW0NIMl1bQ0gyXTcpW0NAQEhdKFtDQEBIXShbQ0gyXTQpW09IXSlbQ0BASF0oQyhbQ0gzXSkoW0NIM10pW09IXSlbQ0BIXThbT0hd

>  <s_epik_cmdline>  (338) 
J2VwaWtfcHl0aG9uJywgJy1waHQnLCAnMi4wJywgJy1waCcsICc3LjAnLCAnLXRuJywgJzgnLCAnLW1hJywgJzIwMCcsICctaW1hZScsICc8aW5maWxlLm1hZT4nLCAnLW9tYWUnLCAnPG91dGZpbGUubWFlPic=

>  <r_lp_tautomer_probability>  (338) 
1

>  <r_epik_Ionization_Penalty>  (338) 
4.79664e-06

>  <r_epik_Ionization_Penalty_Charging>  (338) 
0

>  <r_epik_Ionization_Penalty_Neutral>  (338) 
4.79664e-06

>  <r_epik_State_Penalty>  (338) 
0

>  <r_epik_Charging_Adjusted_Penalty>  (338) 
0

>  <i_epik_Tot_Q>  (338) 
0

>  <i_epik_Tot_abs_Q>  (338) 
0

>  <s_epik_Chemistry_Notes>  (338) 
This compound has an ester and may undergo hydrolysis at high or low pH. This compound contains an acetal/aminal-like group ( X-CH(R)-Y where X, Y are N, S, or O) that may be acid/base labile, releasing an aldehyde.

>  <s_lp_Force_Field>  (338) 
OPLS3e

>  <r_lp_Energy>  (338) 
452.732

>  <b_lp_Chiralities_Consistent>  (338) 
1

>  <s_lp_Variant>  (338) 
96:0-1

>  <s_i_glide_gridfile>  (338) 
pfpi4k_grid

>  <i_i_glide_lignum>  (338) 
1

>  <i_i_glide_rotatable_bonds>  (338) 
9

>  <r_i_docking_score>  (338) 
-2.78883

>  <r_i_glide_ligand_efficiency>  (338) 
-0.0581007

>  <r_i_glide_ligand_efficiency_sa>  (338) 
-0.211152

>  <r_i_glide_ligand_efficiency_ln>  (338) 
-0.572514

>  <r_i_glide_gscore>  (338) 
-2.78883

>  <r_i_glide_lipo>  (338) 
-0.137509

>  <r_i_glide_hbond>  (338) 
0

>  <r_i_glide_metal>  (338) 
-0

>  <r_i_glide_rewards>  (338) 
-1.00404

>  <r_i_glide_evdw>  (338) 
-27.112

>  <r_i_glide_ecoul>  (338) 
-6.59909

>  <r_i_glide_erotb>  (338) 
0.141328

>  <r_i_glide_esite>  (338) 
-0.00752198

>  <r_i_glide_emodel>  (338) 
-42.9654

>  <r_i_glide_energy>  (338) 
-33.7111

>  <r_i_glide_einternal>  (338) 
4.62491

>  <r_i_glide_intrahb_reward>  (338) 
-1

>  <i_i_glide_confnum>  (338) 
4

>  <i_i_glide_posenum>  (338) 
30

>  <r_i_glide_eff_state_penalty>  (338) 
0

>  <ligand_id>  (338) 
96

>  <original_smiles>  (338) 
CC1=C(C)C(=O)OC(C2(C)C3CC4(CC(O)C5C(C(C)(C)O)C(O)C6(C)C7C(C)(C)C5(C)CCC65CC745)OC(O)C3(CO)CC2(C)O)C1

>  <smiles>  (338) 
[H]OC([H])([H])C12C([H])(O[H])OC3(C([H])([H])C([H])(O[H])C4([H])C([H])(C(O[H])(C([H])([H])[H])C([H])([H])[H])C([H])(O[H])C5(C([H])([H])[H])C6([H])C(C([H])([H])[H])(C([H])([H])[H])C4(C([H])([H])[H])C([H])([H])C([H])([H])C54C([H])([H])C634)C([H])([H])C1([H])C(C([H])([H])[H])(C1([H])OC(=O)C(C([H])([H])[H])=C(C([H])([H])[H])C1([H])[H])C(O[H])(C([H])([H])[H])C2([H])[H]

$$$$
96:0:1
     RDKit          3D

108115  0  0  1  0  0  0  0  0999 V2000
    4.6846   -0.4306    0.3328 C   0  0  0  0  0  0  0  0  0  0  0  0
    4.2341   -1.7775    0.8569 C   0  0  0  0  0  0  0  0  0  0  0  0
    4.0314   -2.8791    0.0933 C   0  0  0  0  0  0  0  0  0  0  0  0
    4.2282   -2.8843   -1.4101 C   0  0  0  0  0  0  0  0  0  0  0  0
    3.6862   -4.1878    0.7203 C   0  0  0  0  0  0  0  0  0  0  0  0
    3.6602   -5.2517    0.1060 O   0  0  0  0  0  0  0  0  0  0  0  0
    3.4675   -4.1547    2.0465 O   0  0  0  0  0  0  0  0  0  0  0  0
    3.1263   -2.9599    2.7595 C   0  0  1  0  0  0  0  0  0  0  0  0
    3.1519   -3.2753    4.2904 C   0  0  1  0  0  0  0  0  0  0  0  0
    4.6693   -3.6457    4.5970 C   0  0  0  0  0  0  0  0  0  0  0  0
    2.6817   -2.0595    5.1524 C   0  0  1  0  0  0  0  0  0  0  0  0
    1.5548   -1.1952    4.5078 C   0  0  0  0  0  0  0  0  0  0  0  0
    0.9049   -0.1555    5.4614 C   0  0  1  0  0  0  0  0  0  0  0  0
    1.9011    0.7978    6.3956 C   0  0  0  0  0  0  0  0  0  0  0  0
    2.0825    2.3955    6.7159 C   0  0  1  0  0  0  0  0  0  0  0  0
    3.3962    2.6259    6.3474 O   0  0  0  0  0  0  0  0  0  0  0  0
    1.0623    3.7058    6.4998 C   0  0  1  0  0  0  0  0  0  0  0  0
    1.4608    4.6677    5.3488 C   0  0  1  0  0  0  0  0  0  0  0  0
    2.8318    5.4824    5.4010 C   0  0  0  0  0  0  0  0  0  0  0  0
    4.1085    4.8884    4.7294 C   0  0  0  0  0  0  0  0  0  0  0  0
    2.6367    6.8936    4.8019 C   0  0  0  0  0  0  0  0  0  0  0  0
    3.1420    5.7478    6.7623 O   0  0  0  0  0  0  0  0  0  0  0  0
    0.9919    4.0026    4.0416 C   0  0  1  0  0  0  0  0  0  0  0  0
    1.7407    4.4429    2.9559 O   0  0  0  0  0  0  0  0  0  0  0  0
    0.6604    2.4532    4.2309 C   0  0  1  0  0  0  0  0  0  0  0  0
    1.9453    1.7899    3.5185 C   0  0  0  0  0  0  0  0  0  0  0  0
   -0.2306    1.6943    5.4895 C   0  0  2  0  0  0  0  0  0  0  0  0
   -0.9569    2.2059    6.7957 C   0  0  0  0  0  0  0  0  0  0  0  0
   -2.5364    1.9737    6.9545 C   0  0  0  0  0  0  0  0  0  0  0  0
   -0.5153    1.6278    8.1736 C   0  0  0  0  0  0  0  0  0  0  0  0
   -0.5996    3.6415    6.5236 C   0  0  1  0  0  0  0  0  0  0  0  0
   -1.0907    4.5972    7.6453 C   0  0  0  0  0  0  0  0  0  0  0  0
   -1.5219    3.9723    5.1956 C   0  0  0  0  0  0  0  0  0  0  0  0
   -1.6487    3.0047    3.8576 C   0  0  0  0  0  0  0  0  0  0  0  0
   -0.4773    1.8743    3.5858 C   0  0  1  0  0  0  0  0  0  0  0  0
   -0.7579    0.4423    3.2468 C   0  0  0  0  0  0  0  0  0  0  0  0
   -0.3086    0.5904    4.6893 C   0  0  2  0  0  0  0  0  0  0  0  0
    0.3457   -1.0415    6.4683 O   0  0  0  0  0  0  0  0  0  0  0  0
    1.2996   -1.7425    7.2890 C   0  0  1  0  0  0  0  0  0  0  0  0
    0.6632   -2.4559    8.3082 O   0  0  0  0  0  0  0  0  0  0  0  0
    2.2124   -2.6998    6.4772 C   0  0  2  0  0  0  0  0  0  0  0  0
    3.3947   -3.1336    7.3984 C   0  0  0  0  0  0  0  0  0  0  0  0
    4.3722   -2.1004    7.5008 O   0  0  0  0  0  0  0  0  0  0  0  0
    1.4061   -3.9102    6.0056 C   0  0  0  0  0  0  0  0  0  0  0  0
    2.1086   -4.3955    4.7179 C   0  0  1  0  0  0  0  0  0  0  0  0
    1.0150   -4.7345    3.6799 C   0  0  0  0  0  0  0  0  0  0  0  0
    2.7659   -5.6079    5.0332 O   0  0  0  0  0  0  0  0  0  0  0  0
    4.0702   -1.8008    2.3493 C   0  0  0  0  0  0  0  0  0  0  0  0
    5.4954   -0.0280    0.9497 H   0  0  0  0  0  0  0  0  0  0  0  0
    3.8298    0.2488    0.3637 H   0  0  0  0  0  0  0  0  0  0  0  0
    5.0564   -0.4903   -0.6865 H   0  0  0  0  0  0  0  0  0  0  0  0
    3.5419   -3.5808   -1.8964 H   0  0  0  0  0  0  0  0  0  0  0  0
    5.2661   -3.1552   -1.6198 H   0  0  0  0  0  0  0  0  0  0  0  0
    4.0226   -1.8961   -1.8245 H   0  0  0  0  0  0  0  0  0  0  0  0
    2.1114   -2.7008    2.4370 H   0  0  0  0  0  0  0  0  0  0  0  0
    4.8961   -4.2111    5.5059 H   0  0  0  0  0  0  0  0  0  0  0  0
    5.2883   -2.7427    4.6582 H   0  0  0  0  0  0  0  0  0  0  0  0
    5.0871   -4.2602    3.7894 H   0  0  0  0  0  0  0  0  0  0  0  0
    3.5144   -1.3713    5.2789 H   0  0  0  0  0  0  0  0  0  0  0  0
    1.9289   -0.7007    3.6276 H   0  0  0  0  0  0  0  0  0  0  0  0
    0.7441   -1.8148    4.1259 H   0  0  0  0  0  0  0  0  0  0  0  0
    1.5861    0.5903    7.4007 H   0  0  0  0  0  0  0  0  0  0  0  0
    2.8849    0.3588    6.3731 H   0  0  0  0  0  0  0  0  0  0  0  0
    2.2645    2.4450    7.7958 H   0  0  0  0  0  0  0  0  0  0  0  0
    3.3803    2.6395    5.3872 H   0  0  0  0  0  0  0  0  0  0  0  0
    1.2884    4.2614    7.4144 H   0  0  0  0  0  0  0  0  0  0  0  0
    0.7507    5.4841    5.4959 H   0  0  0  0  0  0  0  0  0  0  0  0
    4.1501    5.2052    3.6867 H   0  0  0  0  0  0  0  0  0  0  0  0
    4.1739    3.8069    4.6739 H   0  0  0  0  0  0  0  0  0  0  0  0
    5.0135    5.2527    5.2299 H   0  0  0  0  0  0  0  0  0  0  0  0
    2.3623    6.8329    3.7484 H   0  0  0  0  0  0  0  0  0  0  0  0
    3.5582    7.4731    4.8534 H   0  0  0  0  0  0  0  0  0  0  0  0
    1.8588    7.4664    5.3112 H   0  0  0  0  0  0  0  0  0  0  0  0
    3.8992    6.3077    6.7843 H   0  0  0  0  0  0  0  0  0  0  0  0
    0.1735    4.5779    3.6562 H   0  0  0  0  0  0  0  0  0  0  0  0
    1.1692    4.3748    2.1693 H   0  0  0  0  0  0  0  0  0  0  0  0
    1.6860    1.1101    2.7076 H   0  0  0  0  0  0  0  0  0  0  0  0
    2.6502    1.2938    4.1772 H   0  0  0  0  0  0  0  0  0  0  0  0
    2.6402    2.4343    2.9969 H   0  0  0  0  0  0  0  0  0  0  0  0
   -1.2820    1.3434    5.4336 H   0  0  0  0  0  0  0  0  0  0  0  0
   -2.9673    2.5699    7.7506 H   0  0  0  0  0  0  0  0  0  0  0  0
   -2.7683    0.9348    7.1960 H   0  0  0  0  0  0  0  0  0  0  0  0
   -3.1273    2.1979    6.0719 H   0  0  0  0  0  0  0  0  0  0  0  0
   -1.2285    1.8559    8.9725 H   0  0  0  0  0  0  0  0  0  0  0  0
    0.4076    2.0299    8.5631 H   0  0  0  0  0  0  0  0  0  0  0  0
   -0.4552    0.5396    8.1386 H   0  0  0  0  0  0  0  0  0  0  0  0
   -2.1760    4.6389    7.7371 H   0  0  0  0  0  0  0  0  0  0  0  0
   -0.7521    5.6154    7.4490 H   0  0  0  0  0  0  0  0  0  0  0  0
   -0.6984    4.3130    8.6234 H   0  0  0  0  0  0  0  0  0  0  0  0
   -2.5463    4.0961    5.5083 H   0  0  0  0  0  0  0  0  0  0  0  0
   -1.3479    4.9932    4.8952 H   0  0  0  0  0  0  0  0  0  0  0  0
   -2.6059    2.4752    3.8848 H   0  0  0  0  0  0  0  0  0  0  0  0
   -1.7369    3.6278    2.9645 H   0  0  0  0  0  0  0  0  0  0  0  0
   -1.7814    0.1583    3.0581 H   0  0  0  0  0  0  0  0  0  0  0  0
   -0.1055    0.0297    2.4740 H   0  0  0  0  0  0  0  0  0  0  0  0
    1.9785   -1.0907    7.8557 H   0  0  0  0  0  0  0  0  0  0  0  0
    1.3122   -2.7156    8.9425 H   0  0  0  0  0  0  0  0  0  0  0  0
    3.0319   -3.3916    8.3926 H   0  0  0  0  0  0  0  0  0  0  0  0
    3.8266   -4.0519    7.0141 H   0  0  0  0  0  0  0  0  0  0  0  0
    4.6973   -1.8495    6.6473 H   0  0  0  0  0  0  0  0  0  0  0  0
    1.3442   -4.6605    6.7866 H   0  0  0  0  0  0  0  0  0  0  0  0
    0.3738   -3.6168    5.7984 H   0  0  0  0  0  0  0  0  0  0  0  0
    0.5102   -3.8342    3.3410 H   0  0  0  0  0  0  0  0  0  0  0  0
    0.2521   -5.3824    4.1082 H   0  0  0  0  0  0  0  0  0  0  0  0
    1.4200   -5.2423    2.8097 H   0  0  0  0  0  0  0  0  0  0  0  0
    3.4108   -5.4341    5.6989 H   0  0  0  0  0  0  0  0  0  0  0  0
    5.0779   -1.9057    2.7529 H   0  0  0  0  0  0  0  0  0  0  0  0
    3.6986   -0.8336    2.6957 H   0  0  0  0  0  0  0  0  0  0  0  0
  1  2  1  0
  1 49  1  0
  1 50  1  0
  1 51  1  0
  2 48  1  0
  2  3  2  0
  3  4  1  0
  3  5  1  0
  4 52  1  0
  4 53  1  0
  4 54  1  0
  5  6  2  0
  5  7  1  0
  7  8  1  0
  8  9  1  0
  8 48  1  0
  8 55  1  6
  9 45  1  0
  9 10  1  1
  9 11  1  0
 10 56  1  0
 10 57  1  0
 10 58  1  0
 11 41  1  0
 11 12  1  0
 11 59  1  1
 12 13  1  0
 12 60  1  0
 12 61  1  0
 13 37  1  0
 13 14  1  0
 13 38  1  1
 14 15  1  0
 14 62  1  0
 14 63  1  0
 15 16  1  0
 15 17  1  0
 15 64  1  1
 16 65  1  0
 17 31  1  0
 17 18  1  0
 17 66  1  1
 18 19  1  0
 18 23  1  0
 18 67  1  1
 19 20  1  0
 19 21  1  0
 19 22  1  0
 20 68  1  0
 20 69  1  0
 20 70  1  0
 21 71  1  0
 21 72  1  0
 21 73  1  0
 22 74  1  0
 23 24  1  0
 23 25  1  0
 23 75  1  6
 24 76  1  0
 25 35  1  0
 25 26  1  6
 25 27  1  0
 26 77  1  0
 26 78  1  0
 26 79  1  0
 27 37  1  0
 27 28  1  0
 27 80  1  1
 28 29  1  0
 28 30  1  0
 28 31  1  0
 29 81  1  0
 29 82  1  0
 29 83  1  0
 30 84  1  0
 30 85  1  0
 30 86  1  0
 31 32  1  1
 31 33  1  0
 32 87  1  0
 32 88  1  0
 32 89  1  0
 33 34  1  0
 33 90  1  0
 33 91  1  0
 34 35  1  0
 34 92  1  0
 34 93  1  0
 35 37  1  0
 35 36  1  6
 37 36  1  1
 36 94  1  0
 36 95  1  0
 38 39  1  0
 39 40  1  0
 39 41  1  0
 39 96  1  1
 40 97  1  0
 41 42  1  1
 41 44  1  0
 42 43  1  0
 42 98  1  0
 42 99  1  0
 43100  1  0
 44 45  1  0
 44101  1  0
 44102  1  0
 45 46  1  0
 45 47  1  1
 46103  1  0
 46104  1  0
 46105  1  0
 47106  1  0
 48107  1  0
 48108  1  0
M  END
>  <i_m_ct_stereo_status>  (339) 
1

>  <s_m_source_file>  (339) 
/var/tmp/pbs.5083858.sched01/tmpidrm27xv/140qfbh568q.sdf

>  <i_m_source_file_index>  (339) 
1

>  <i_lp_mmshare_version>  (339) 
48012

>  <i_f3d_flags>  (339) 
0

>  <s_epik_input>  (339) 
W0NIM11DMT1DKFtDSDNdKUMoPU8pT1tDQEhdKFtDSDJdMSlbQ0BdMihbQ0gzXSlbQ0BAXShbQ0gzXSkoW09IXSlbQ0gyXVtDQEBdKFtDQEBIXShPMylbT0hdKShbQ0gyXVtPSF0pW0NAQEhdMltDSDJdW0NAQF0zNFtDQF01NltDQF03KFtDSDJdNilbQ0BdOChbQ0gzXSlbQ0BASF01QyhbQ0gzXSkoW0NIM10pW0NAXShbQ0gzXSkoW0NIMl1bQ0gyXTcpW0NAQEhdKFtDQEBIXShbQ0gyXTQpW09IXSlbQ0BASF0oQyhbQ0gzXSkoW0NIM10pW09IXSlbQ0BIXThbT0hd

>  <s_epik_cmdline>  (339) 
J2VwaWtfcHl0aG9uJywgJy1waHQnLCAnMi4wJywgJy1waCcsICc3LjAnLCAnLXRuJywgJzgnLCAnLW1hJywgJzIwMCcsICctaW1hZScsICc8aW5maWxlLm1hZT4nLCAnLW9tYWUnLCAnPG91dGZpbGUubWFlPic=

>  <r_lp_tautomer_probability>  (339) 
1

>  <r_epik_Ionization_Penalty>  (339) 
4.79664e-06

>  <r_epik_Ionization_Penalty_Charging>  (339) 
0

>  <r_epik_Ionization_Penalty_Neutral>  (339) 
4.79664e-06

>  <r_epik_State_Penalty>  (339) 
0

>  <r_epik_Charging_Adjusted_Penalty>  (339) 
0

>  <i_epik_Tot_Q>  (339) 
0

>  <i_epik_Tot_abs_Q>  (339) 
0

>  <s_epik_Chemistry_Notes>  (339) 
This compound has an ester and may undergo hydrolysis at high or low pH. This compound contains an acetal/aminal-like group ( X-CH(R)-Y where X, Y are N, S, or O) that may be acid/base labile, releasing an aldehyde.

>  <s_lp_Force_Field>  (339) 
OPLS3e

>  <r_lp_Energy>  (339) 
452.732

>  <b_lp_Chiralities_Consistent>  (339) 
1

>  <s_lp_Variant>  (339) 
96:0-1

>  <s_i_glide_gridfile>  (339) 
pfpi4k_grid

>  <i_i_glide_lignum>  (339) 
1

>  <i_i_glide_rotatable_bonds>  (339) 
9

>  <r_i_docking_score>  (339) 
-1.97093

>  <r_i_glide_ligand_efficiency>  (339) 
-0.0410611

>  <r_i_glide_ligand_efficiency_sa>  (339) 
-0.149226

>  <r_i_glide_ligand_efficiency_ln>  (339) 
-0.404609

>  <r_i_glide_gscore>  (339) 
-1.97093

>  <r_i_glide_lipo>  (339) 
-0.155625

>  <r_i_glide_hbond>  (339) 
-0.16

>  <r_i_glide_metal>  (339) 
-0

>  <r_i_glide_rewards>  (339) 
-0.00255604

>  <r_i_glide_evdw>  (339) 
-27.4474

>  <r_i_glide_ecoul>  (339) 
-4.99947

>  <r_i_glide_erotb>  (339) 
0.141328

>  <r_i_glide_esite>  (339) 
-0.00545381

>  <r_i_glide_emodel>  (339) 
-31.2389

>  <r_i_glide_energy>  (339) 
-32.4469

>  <r_i_glide_einternal>  (339) 
2.5015

>  <r_i_glide_intrahb_reward>  (339) 
-0

>  <i_i_glide_confnum>  (339) 
1

>  <i_i_glide_posenum>  (339) 
21

>  <r_i_glide_eff_state_penalty>  (339) 
0

>  <ligand_id>  (339) 
96

>  <original_smiles>  (339) 
CC1=C(C)C(=O)OC(C2(C)C3CC4(CC(O)C5C(C(C)(C)O)C(O)C6(C)C7C(C)(C)C5(C)CCC65CC745)OC(O)C3(CO)CC2(C)O)C1

>  <smiles>  (339) 
[H]OC([H])([H])C12C([H])(O[H])OC3(C([H])([H])C([H])(O[H])C4([H])C([H])(C(O[H])(C([H])([H])[H])C([H])([H])[H])C([H])(O[H])C5(C([H])([H])[H])C6([H])C(C([H])([H])[H])(C([H])([H])[H])C4(C([H])([H])[H])C([H])([H])C([H])([H])C54C([H])([H])C634)C([H])([H])C1([H])C(C([H])([H])[H])(C1([H])OC(=O)C(C([H])([H])[H])=C(C([H])([H])[H])C1([H])[H])C(O[H])(C([H])([H])[H])C2([H])[H]

$$$$
96:0:2
     RDKit          3D

108115  0  0  1  0  0  0  0  0999 V2000
    4.6787   -0.8678    0.5691 C   0  0  0  0  0  0  0  0  0  0  0  0
    4.1222   -2.1630    1.1214 C   0  0  0  0  0  0  0  0  0  0  0  0
    3.8617   -3.2884    0.3801 C   0  0  0  0  0  0  0  0  0  0  0  0
    4.0901   -3.3627   -1.1055 C   0  0  0  0  0  0  0  0  0  0  0  0
    3.4067   -4.5459    1.0503 C   0  0  0  0  0  0  0  0  0  0  0  0
    3.3145   -5.6296    0.4807 O   0  0  0  0  0  0  0  0  0  0  0  0
    3.1529   -4.4447    2.3728 O   0  0  0  0  0  0  0  0  0  0  0  0
    2.8874   -3.2018    3.0284 C   0  0  1  0  0  0  0  0  0  0  0  0
    2.8439   -3.4830    4.5701 C   0  0  1  0  0  0  0  0  0  0  0  0
    4.3184   -3.9702    4.9595 C   0  0  0  0  0  0  0  0  0  0  0  0
    2.4482   -2.2090    5.3938 C   0  0  1  0  0  0  0  0  0  0  0  0
    1.4103   -1.2870    4.6752 C   0  0  0  0  0  0  0  0  0  0  0  0
    0.8355   -0.1531    5.5753 C   0  0  1  0  0  0  0  0  0  0  0  0
    1.8514    0.7540    6.5326 C   0  0  0  0  0  0  0  0  0  0  0  0
    2.1577    2.3561    6.7567 C   0  0  1  0  0  0  0  0  0  0  0  0
    3.4676    2.4785    6.2716 O   0  0  0  0  0  0  0  0  0  0  0  0
    1.2193    3.7298    6.4937 C   0  0  1  0  0  0  0  0  0  0  0  0
    1.7070    4.6498    5.3347 C   0  0  1  0  0  0  0  0  0  0  0  0
    3.1452    5.3235    5.4508 C   0  0  0  0  0  0  0  0  0  0  0  0
    3.2549    6.6672    4.6996 C   0  0  0  0  0  0  0  0  0  0  0  0
    3.5944    5.5552    6.9122 C   0  0  0  0  0  0  0  0  0  0  0  0
    4.1791    4.5409    4.9288 O   0  0  0  0  0  0  0  0  0  0  0  0
    1.2560    3.9566    4.0215 C   0  0  1  0  0  0  0  0  0  0  0  0
    2.0271    4.2848    2.9310 O   0  0  0  0  0  0  0  0  0  0  0  0
    0.7811    2.4207    4.2751 C   0  0  1  0  0  0  0  0  0  0  0  0
    2.0466    1.6397    3.6020 C   0  0  0  0  0  0  0  0  0  0  0  0
   -0.1725    1.7814    5.5198 C   0  0  2  0  0  0  0  0  0  0  0  0
   -0.9112    2.3765    6.7933 C   0  0  0  0  0  0  0  0  0  0  0  0
   -2.5039    2.2746    6.8986 C   0  0  0  0  0  0  0  0  0  0  0  0
   -0.5418    1.8226    8.1924 C   0  0  0  0  0  0  0  0  0  0  0  0
   -0.4254    3.7755    6.4813 C   0  0  1  0  0  0  0  0  0  0  0  0
   -0.8758    4.7967    7.5585 C   0  0  0  0  0  0  0  0  0  0  0  0
   -1.2772    4.1223    5.1115 C   0  0  0  0  0  0  0  0  0  0  0  0
   -1.4537    3.1177    3.8047 C   0  0  0  0  0  0  0  0  0  0  0  0
   -0.3657    1.8885    3.6172 C   0  0  1  0  0  0  0  0  0  0  0  0
   -0.7410    0.4765    3.3220 C   0  0  0  0  0  0  0  0  0  0  0  0
   -0.3127    0.6477    4.7477 C   0  0  2  0  0  0  0  0  0  0  0  0
    0.1660   -0.9599    6.5773 O   0  0  0  0  0  0  0  0  0  0  0  0
    0.9937   -1.6963    7.4765 C   0  0  1  0  0  0  0  0  0  0  0  0
    0.1974   -2.3195    8.4429 O   0  0  0  0  0  0  0  0  0  0  0  0
    1.8921   -2.7592    6.7345 C   0  0  2  0  0  0  0  0  0  0  0  0
    2.9855   -3.3061    7.6938 C   0  0  0  0  0  0  0  0  0  0  0  0
    4.0525   -2.3461    7.8002 O   0  0  0  0  0  0  0  0  0  0  0  0
    1.0019   -3.9282    6.2599 C   0  0  0  0  0  0  0  0  0  0  0  0
    1.7030   -4.5012    5.0006 C   0  0  1  0  0  0  0  0  0  0  0  0
    0.6120   -4.8050    3.9588 C   0  0  0  0  0  0  0  0  0  0  0  0
    2.2519   -5.7584    5.3639 O   0  0  0  0  0  0  0  0  0  0  0  0
    3.9231   -2.1261    2.6091 C   0  0  0  0  0  0  0  0  0  0  0  0
    5.4872   -0.5034    1.2223 H   0  0  0  0  0  0  0  0  0  0  0  0
    3.8734   -0.1262    0.5541 H   0  0  0  0  0  0  0  0  0  0  0  0
    5.0799   -0.9866   -0.4317 H   0  0  0  0  0  0  0  0  0  0  0  0
    3.3681   -4.0404   -1.5818 H   0  0  0  0  0  0  0  0  0  0  0  0
    5.1138   -3.7156   -1.2810 H   0  0  0  0  0  0  0  0  0  0  0  0
    3.9663   -2.3762   -1.5624 H   0  0  0  0  0  0  0  0  0  0  0  0
    1.9043   -2.8859    2.6610 H   0  0  0  0  0  0  0  0  0  0  0  0
    4.4447   -4.5023    5.8768 H   0  0  0  0  0  0  0  0  0  0  0  0
    5.0024   -3.1058    4.9942 H   0  0  0  0  0  0  0  0  0  0  0  0
    4.7265   -4.6120    4.1539 H   0  0  0  0  0  0  0  0  0  0  0  0
    3.3259   -1.5844    5.5150 H   0  0  0  0  0  0  0  0  0  0  0  0
    1.8334   -0.8425    3.7969 H   0  0  0  0  0  0  0  0  0  0  0  0
    0.5337   -1.8431    4.3341 H   0  0  0  0  0  0  0  0  0  0  0  0
    1.4928    0.6123    7.4997 H   0  0  0  0  0  0  0  0  0  0  0  0
    2.8247    0.2596    6.5395 H   0  0  0  0  0  0  0  0  0  0  0  0
    2.3466    2.4446    7.8241 H   0  0  0  0  0  0  0  0  0  0  0  0
    3.4186    2.2608    5.3597 H   0  0  0  0  0  0  0  0  0  0  0  0
    1.4454    4.2805    7.4126 H   0  0  0  0  0  0  0  0  0  0  0  0
    1.0834    5.5378    5.4242 H   0  0  0  0  0  0  0  0  0  0  0  0
    2.9409    7.4874    5.3395 H   0  0  0  0  0  0  0  0  0  0  0  0
    2.6667    6.6853    3.7859 H   0  0  0  0  0  0  0  0  0  0  0  0
    4.2904    6.8641    4.4227 H   0  0  0  0  0  0  0  0  0  0  0  0
    2.8758    6.1813    7.4313 H   0  0  0  0  0  0  0  0  0  0  0  0
    4.5707    6.0362    6.9472 H   0  0  0  0  0  0  0  0  0  0  0  0
    3.6975    4.6318    7.4848 H   0  0  0  0  0  0  0  0  0  0  0  0
    4.1734    3.7127    5.3951 H   0  0  0  0  0  0  0  0  0  0  0  0
    0.4770    4.5647    3.5947 H   0  0  0  0  0  0  0  0  0  0  0  0
    1.4653    4.1910    2.1252 H   0  0  0  0  0  0  0  0  0  0  0  0
    1.7330    0.9687    2.8070 H   0  0  0  0  0  0  0  0  0  0  0  0
    2.6748    1.1054    4.2956 H   0  0  0  0  0  0  0  0  0  0  0  0
    2.7873    2.2290    3.1031 H   0  0  0  0  0  0  0  0  0  0  0  0
   -1.2531    1.5245    5.4587 H   0  0  0  0  0  0  0  0  0  0  0  0
   -2.9028    2.9213    7.6660 H   0  0  0  0  0  0  0  0  0  0  0  0
   -2.8116    1.2571    7.1675 H   0  0  0  0  0  0  0  0  0  0  0  0
   -3.0641    2.5118    5.9862 H   0  0  0  0  0  0  0  0  0  0  0  0
   -1.2660    2.1347    8.9641 H   0  0  0  0  0  0  0  0  0  0  0  0
    0.4037    2.1659    8.5935 H   0  0  0  0  0  0  0  0  0  0  0  0
   -0.5705    0.7284    8.1962 H   0  0  0  0  0  0  0  0  0  0  0  0
   -1.9548    4.9170    7.6446 H   0  0  0  0  0  0  0  0  0  0  0  0
   -0.4616    5.7836    7.3364 H   0  0  0  0  0  0  0  0  0  0  0  0
   -0.5243    4.5187    8.5545 H   0  0  0  0  0  0  0  0  0  0  0  0
   -2.3028    4.3352    5.3788 H   0  0  0  0  0  0  0  0  0  0  0  0
   -1.0137    5.1159    4.7871 H   0  0  0  0  0  0  0  0  0  0  0  0
   -2.4376    2.6462    3.8286 H   0  0  0  0  0  0  0  0  0  0  0  0
   -1.4516    3.7055    2.8884 H   0  0  0  0  0  0  0  0  0  0  0  0
   -1.8105    0.2820    3.0796 H   0  0  0  0  0  0  0  0  0  0  0  0
   -0.1059   -0.0147    2.5911 H   0  0  0  0  0  0  0  0  0  0  0  0
    1.7038   -1.0723    8.0433 H   0  0  0  0  0  0  0  0  0  0  0  0
    0.1869   -3.2526    8.3141 H   0  0  0  0  0  0  0  0  0  0  0  0
    2.5761   -3.4312    8.7154 H   0  0  0  0  0  0  0  0  0  0  0  0
    3.3820   -4.2263    7.3714 H   0  0  0  0  0  0  0  0  0  0  0  0
    4.7706   -2.6968    8.3003 H   0  0  0  0  0  0  0  0  0  0  0  0
    0.8634   -4.6476    7.0612 H   0  0  0  0  0  0  0  0  0  0  0  0
    0.0084   -3.5546    6.0246 H   0  0  0  0  0  0  0  0  0  0  0  0
    0.2006   -3.8743    3.5818 H   0  0  0  0  0  0  0  0  0  0  0  0
   -0.1965   -5.3843    4.3916 H   0  0  0  0  0  0  0  0  0  0  0  0
    0.9866   -5.3681    3.1002 H   0  0  0  0  0  0  0  0  0  0  0  0
    2.7382   -6.0943    4.6304 H   0  0  0  0  0  0  0  0  0  0  0  0
    4.9198   -2.2979    3.0293 H   0  0  0  0  0  0  0  0  0  0  0  0
    3.6044   -1.1216    2.9105 H   0  0  0  0  0  0  0  0  0  0  0  0
  1  2  1  0
  1 49  1  0
  1 50  1  0
  1 51  1  0
  2 48  1  0
  2  3  2  0
  3  4  1  0
  3  5  1  0
  4 52  1  0
  4 53  1  0
  4 54  1  0
  5  6  2  0
  5  7  1  0
  7  8  1  0
  8  9  1  0
  8 48  1  0
  8 55  1  6
  9 45  1  0
  9 10  1  1
  9 11  1  0
 10 56  1  0
 10 57  1  0
 10 58  1  0
 11 41  1  0
 11 12  1  0
 11 59  1  1
 12 13  1  0
 12 60  1  0
 12 61  1  0
 13 37  1  0
 13 14  1  0
 13 38  1  1
 14 15  1  0
 14 62  1  0
 14 63  1  0
 15 16  1  0
 15 17  1  0
 15 64  1  1
 16 65  1  0
 17 31  1  0
 17 18  1  0
 17 66  1  1
 18 19  1  0
 18 23  1  0
 18 67  1  1
 19 20  1  0
 19 21  1  0
 19 22  1  0
 20 68  1  0
 20 69  1  0
 20 70  1  0
 21 71  1  0
 21 72  1  0
 21 73  1  0
 22 74  1  0
 23 24  1  0
 23 25  1  0
 23 75  1  6
 24 76  1  0
 25 35  1  0
 25 26  1  6
 25 27  1  0
 26 77  1  0
 26 78  1  0
 26 79  1  0
 27 37  1  0
 27 28  1  0
 27 80  1  1
 28 29  1  0
 28 30  1  0
 28 31  1  0
 29 81  1  0
 29 82  1  0
 29 83  1  0
 30 84  1  0
 30 85  1  0
 30 86  1  0
 31 32  1  1
 31 33  1  0
 32 87  1  0
 32 88  1  0
 32 89  1  0
 33 34  1  0
 33 90  1  0
 33 91  1  0
 34 35  1  0
 34 92  1  0
 34 93  1  0
 35 37  1  0
 35 36  1  6
 37 36  1  1
 36 94  1  0
 36 95  1  0
 38 39  1  0
 39 40  1  0
 39 41  1  0
 39 96  1  1
 40 97  1  0
 41 42  1  1
 41 44  1  0
 42 43  1  0
 42 98  1  0
 42 99  1  0
 43100  1  0
 44 45  1  0
 44101  1  0
 44102  1  0
 45 46  1  0
 45 47  1  1
 46103  1  0
 46104  1  0
 46105  1  0
 47106  1  0
 48107  1  0
 48108  1  0
M  END
>  <i_m_ct_stereo_status>  (340) 
1

>  <s_m_source_file>  (340) 
/var/tmp/pbs.5083858.sched01/tmpidrm27xv/140qfbh568q.sdf

>  <i_m_source_file_index>  (340) 
1

>  <i_lp_mmshare_version>  (340) 
48012

>  <i_f3d_flags>  (340) 
0

>  <s_epik_input>  (340) 
W0NIM11DMT1DKFtDSDNdKUMoPU8pT1tDQEhdKFtDSDJdMSlbQ0BdMihbQ0gzXSlbQ0BAXShbQ0gzXSkoW09IXSlbQ0gyXVtDQEBdKFtDQEBIXShPMylbT0hdKShbQ0gyXVtPSF0pW0NAQEhdMltDSDJdW0NAQF0zNFtDQF01NltDQF03KFtDSDJdNilbQ0BdOChbQ0gzXSlbQ0BASF01QyhbQ0gzXSkoW0NIM10pW0NAXShbQ0gzXSkoW0NIMl1bQ0gyXTcpW0NAQEhdKFtDQEBIXShbQ0gyXTQpW09IXSlbQ0BASF0oQyhbQ0gzXSkoW0NIM10pW09IXSlbQ0BIXThbT0hd

>  <s_epik_cmdline>  (340) 
J2VwaWtfcHl0aG9uJywgJy1waHQnLCAnMi4wJywgJy1waCcsICc3LjAnLCAnLXRuJywgJzgnLCAnLW1hJywgJzIwMCcsICctaW1hZScsICc8aW5maWxlLm1hZT4nLCAnLW9tYWUnLCAnPG91dGZpbGUubWFlPic=

>  <r_lp_tautomer_probability>  (340) 
1

>  <r_epik_Ionization_Penalty>  (340) 
4.79664e-06

>  <r_epik_Ionization_Penalty_Charging>  (340) 
0

>  <r_epik_Ionization_Penalty_Neutral>  (340) 
4.79664e-06

>  <r_epik_State_Penalty>  (340) 
0

>  <r_epik_Charging_Adjusted_Penalty>  (340) 
0

>  <i_epik_Tot_Q>  (340) 
0

>  <i_epik_Tot_abs_Q>  (340) 
0

>  <s_epik_Chemistry_Notes>  (340) 
This compound has an ester and may undergo hydrolysis at high or low pH. This compound contains an acetal/aminal-like group ( X-CH(R)-Y where X, Y are N, S, or O) that may be acid/base labile, releasing an aldehyde.

>  <s_lp_Force_Field>  (340) 
OPLS3e

>  <r_lp_Energy>  (340) 
452.732

>  <b_lp_Chiralities_Consistent>  (340) 
1

>  <s_lp_Variant>  (340) 
96:0-1

>  <s_i_glide_gridfile>  (340) 
pfpi4k_grid

>  <i_i_glide_lignum>  (340) 
1

>  <i_i_glide_rotatable_bonds>  (340) 
9

>  <r_i_docking_score>  (340) 
-1.72559

>  <r_i_glide_ligand_efficiency>  (340) 
-0.0359499

>  <r_i_glide_ligand_efficiency_sa>  (340) 
-0.130651

>  <r_i_glide_ligand_efficiency_ln>  (340) 
-0.354244

>  <r_i_glide_gscore>  (340) 
-1.72559

>  <r_i_glide_lipo>  (340) 
-0.143873

>  <r_i_glide_hbond>  (340) 
0

>  <r_i_glide_metal>  (340) 
-0

>  <r_i_glide_rewards>  (340) 
0

>  <r_i_glide_evdw>  (340) 
-26.6568

>  <r_i_glide_ecoul>  (340) 
-5.2759

>  <r_i_glide_erotb>  (340) 
0.141328

>  <r_i_glide_esite>  (340) 
-0.0147027

>  <r_i_glide_emodel>  (340) 
-29.8362

>  <r_i_glide_energy>  (340) 
-31.9327

>  <r_i_glide_einternal>  (340) 
2.85971

>  <r_i_glide_intrahb_reward>  (340) 
-0

>  <i_i_glide_confnum>  (340) 
4

>  <i_i_glide_posenum>  (340) 
1

>  <r_i_glide_eff_state_penalty>  (340) 
0

>  <ligand_id>  (340) 
96

>  <original_smiles>  (340) 
CC1=C(C)C(=O)OC(C2(C)C3CC4(CC(O)C5C(C(C)(C)O)C(O)C6(C)C7C(C)(C)C5(C)CCC65CC745)OC(O)C3(CO)CC2(C)O)C1

>  <smiles>  (340) 
[H]OC([H])([H])C12C([H])(O[H])OC3(C([H])([H])C([H])(O[H])C4([H])C([H])(C(O[H])(C([H])([H])[H])C([H])([H])[H])C([H])(O[H])C5(C([H])([H])[H])C6([H])C(C([H])([H])[H])(C([H])([H])[H])C4(C([H])([H])[H])C([H])([H])C([H])([H])C54C([H])([H])C634)C([H])([H])C1([H])C(C([H])([H])[H])(C1([H])OC(=O)C(C([H])([H])[H])=C(C([H])([H])[H])C1([H])[H])C(O[H])(C([H])([H])[H])C2([H])[H]

$$$$
100:0:0
     RDKit          3D

 35 38  0  0  1  0  0  0  0  0999 V2000
    3.8999   -3.7427    2.7288 C   0  0  0  0  0  0  0  0  0  0  0  0
    4.3599   -3.3302    1.3365 C   0  0  2  0  0  0  0  0  0  0  0  0
    5.6080   -2.4274    1.2843 C   0  0  0  0  0  0  0  0  0  0  0  0
    6.1318   -1.5596    2.0027 O   0  0  0  0  0  0  0  0  0  0  0  0
    5.9526   -3.1253   -0.0486 C   0  0  2  0  0  0  0  0  0  0  0  0
    7.3232   -2.8348   -0.6239 C   0  0  0  0  0  0  0  0  0  0  0  0
    6.7019   -1.8556   -1.5138 O   0  0  0  0  0  0  0  0  0  0  0  0
    5.4524   -2.5730   -1.3866 C   0  0  2  0  0  0  0  0  0  0  0  0
    4.0872   -1.8324   -1.5226 C   0  0  2  0  0  0  0  0  0  0  0  0
    4.0169   -0.8418   -2.7125 C   0  0  0  0  0  0  0  0  0  0  0  0
    4.2157   -1.4681   -3.9696 O   0  0  0  0  0  0  0  0  0  0  0  0
    3.5834   -1.2458   -0.1959 C   0  0  0  0  0  0  0  0  0  0  0  0
    3.2079   -2.5249    0.6196 C   0  0  1  0  0  0  0  0  0  0  0  0
    2.6266   -3.3018   -0.4131 O   0  0  0  0  0  0  0  0  0  0  0  0
    3.0069   -2.9196   -1.6316 C   0  0  0  0  0  0  0  0  0  0  0  0
    2.5781   -3.3647   -2.6908 O   0  0  0  0  0  0  0  0  0  0  0  0
    5.3134   -4.3675    0.5854 C   0  0  1  0  0  0  0  0  0  0  0  0
    6.2453   -5.2688    1.4050 C   0  0  0  0  0  0  0  0  0  0  0  0
    4.7082   -5.2731   -0.3027 O   0  0  0  0  0  0  0  0  0  0  0  0
    3.2146   -4.5893    2.6487 H   0  0  0  0  0  0  0  0  0  0  0  0
    3.3689   -2.9472    3.2500 H   0  0  0  0  0  0  0  0  0  0  0  0
    4.7266   -4.0655    3.3631 H   0  0  0  0  0  0  0  0  0  0  0  0
    8.0441   -2.3758    0.0609 H   0  0  0  0  0  0  0  0  0  0  0  0
    7.7672   -3.6550   -1.1856 H   0  0  0  0  0  0  0  0  0  0  0  0
    5.4827   -3.3881   -2.1196 H   0  0  0  0  0  0  0  0  0  0  0  0
    3.0398   -0.3536   -2.7509 H   0  0  0  0  0  0  0  0  0  0  0  0
    4.7605   -0.0537   -2.5924 H   0  0  0  0  0  0  0  0  0  0  0  0
    3.5531   -2.1506   -4.0360 H   0  0  0  0  0  0  0  0  0  0  0  0
    4.2732   -0.5318    0.2638 H   0  0  0  0  0  0  0  0  0  0  0  0
    2.6879   -0.6642   -0.3551 H   0  0  0  0  0  0  0  0  0  0  0  0
    2.4341   -2.2547    1.3357 H   0  0  0  0  0  0  0  0  0  0  0  0
    6.8138   -4.7075    2.1481 H   0  0  0  0  0  0  0  0  0  0  0  0
    6.9686   -5.7817    0.7653 H   0  0  0  0  0  0  0  0  0  0  0  0
    5.6672   -6.0221    1.9412 H   0  0  0  0  0  0  0  0  0  0  0  0
    4.0884   -4.7783   -0.8309 H   0  0  0  0  0  0  0  0  0  0  0  0
  2  1  1  1
  1 20  1  0
  1 21  1  0
  1 22  1  0
  2 13  1  0
  2 17  1  0
  2  3  1  0
  3  4  2  0
  3  5  1  0
  5  8  1  0
  5  6  1  6
  5 17  1  0
  6  7  1  0
  6 23  1  0
  6 24  1  0
  7  8  1  0
  8  9  1  0
  8 25  1  6
  9 15  1  0
  9 10  1  6
  9 12  1  0
 10 11  1  0
 10 26  1  0
 10 27  1  0
 11 28  1  0
 12 13  1  0
 12 29  1  0
 12 30  1  0
 13 14  1  0
 13 31  1  1
 14 15  1  0
 15 16  2  0
 17 18  1  0
 17 19  1  6
 18 32  1  0
 18 33  1  0
 18 34  1  0
 19 35  1  0
M  END
>  <i_m_ct_stereo_status>  (341) 
1

>  <s_m_source_file>  (341) 
/var/tmp/pbs.5083858.sched01/tmpidrm27xv/140qfbh568q.sdf

>  <i_m_source_file_index>  (341) 
5

>  <i_lp_mmshare_version>  (341) 
48012

>  <i_f3d_flags>  (341) 
0

>  <s_epik_input>  (341) 
Tz1DMVtDQF0oW0NIM10pKFtDQEBdMihbQ0gzXSlbT0hdKVtDQEhdKE9DMz1PKVtDSDJdW0NAQF0zKFtDSDJdW09IXSlbQ0BIXShbQ0BAXTEyNClPW0NIMl00

>  <s_epik_cmdline>  (341) 
J2VwaWtfcHl0aG9uJywgJy1waHQnLCAnMi4wJywgJy1waCcsICc3LjAnLCAnLXRuJywgJzgnLCAnLW1hJywgJzIwMCcsICctaW1hZScsICc8aW5maWxlLm1hZT4nLCAnLW9tYWUnLCAnPG91dGZpbGUubWFlPic=

>  <r_lp_tautomer_probability>  (341) 
1

>  <r_epik_Ionization_Penalty>  (341) 
3.65292e-06

>  <r_epik_Ionization_Penalty_Charging>  (341) 
0

>  <r_epik_Ionization_Penalty_Neutral>  (341) 
3.65292e-06

>  <r_epik_State_Penalty>  (341) 
0

>  <r_epik_Charging_Adjusted_Penalty>  (341) 
0

>  <i_epik_Tot_Q>  (341) 
0

>  <i_epik_Tot_abs_Q>  (341) 
0

>  <s_epik_Chemistry_Notes>  (341) 
This compound has an ester and may undergo hydrolysis at high or low pH.

>  <s_lp_Force_Field>  (341) 
OPLS3e

>  <r_lp_Energy>  (341) 
18.2939

>  <b_lp_Chiralities_Consistent>  (341) 
1

>  <s_lp_Variant>  (341) 
100:0-1

>  <s_i_glide_gridfile>  (341) 
pfpi4k_grid

>  <i_i_glide_lignum>  (341) 
5

>  <i_i_glide_rotatable_bonds>  (341) 
3

>  <r_i_docking_score>  (341) 
-4.1525

>  <r_i_glide_ligand_efficiency>  (341) 
-0.218552

>  <r_i_glide_ligand_efficiency_sa>  (341) 
-0.583186

>  <r_i_glide_ligand_efficiency_ln>  (341) 
-1.05275

>  <r_i_glide_gscore>  (341) 
-4.1525

>  <r_i_glide_lipo>  (341) 
-0.255876

>  <r_i_glide_hbond>  (341) 
-0.16

>  <r_i_glide_metal>  (341) 
-0

>  <r_i_glide_rewards>  (341) 
-2.18469

>  <r_i_glide_evdw>  (341) 
-18.7391

>  <r_i_glide_ecoul>  (341) 
-5.69505

>  <r_i_glide_erotb>  (341) 
0.247998

>  <r_i_glide_esite>  (341) 
-0.00871227

>  <r_i_glide_emodel>  (341) 
-35.2594

>  <r_i_glide_energy>  (341) 
-24.4341

>  <r_i_glide_einternal>  (341) 
0.653775

>  <r_i_glide_intrahb_reward>  (341) 
-0.5

>  <i_i_glide_confnum>  (341) 
3

>  <i_i_glide_posenum>  (341) 
26

>  <r_i_glide_eff_state_penalty>  (341) 
0

>  <ligand_id>  (341) 
100

>  <original_smiles>  (341) 
CC12C(=O)C3(COC3C3(CO)CC1OC3=O)C2(C)O

>  <smiles>  (341) 
[H]OC([H])([H])C12C(=O)OC([H])(C1([H])[H])C1(C([H])([H])[H])C(=O)C3(C([H])([H])OC23[H])C1(O[H])C([H])([H])[H]

$$$$
100:0:1
     RDKit          3D

 35 38  0  0  1  0  0  0  0  0999 V2000
    3.6196   -3.3609    2.3769 C   0  0  0  0  0  0  0  0  0  0  0  0
    4.1849   -3.1427    0.9773 C   0  0  2  0  0  0  0  0  0  0  0  0
    5.4551   -2.2653    0.9028 C   0  0  0  0  0  0  0  0  0  0  0  0
    5.9592   -1.3445    1.5683 O   0  0  0  0  0  0  0  0  0  0  0  0
    5.8718   -3.1083   -0.3183 C   0  0  2  0  0  0  0  0  0  0  0  0
    7.2842   -2.8979   -0.8321 C   0  0  0  0  0  0  0  0  0  0  0  0
    6.7287   -1.9881   -1.8498 O   0  0  0  0  0  0  0  0  0  0  0  0
    5.4634   -2.6923   -1.7338 C   0  0  2  0  0  0  0  0  0  0  0  0
    4.1317   -1.9371   -2.0518 C   0  0  2  0  0  0  0  0  0  0  0  0
    4.1461   -1.1346   -3.3882 C   0  0  0  0  0  0  0  0  0  0  0  0
    4.2150    0.2574   -3.2071 O   0  0  0  0  0  0  0  0  0  0  0  0
    3.5717   -1.2336   -0.8283 C   0  0  0  0  0  0  0  0  0  0  0  0
    3.0983   -2.4063    0.0878 C   0  0  1  0  0  0  0  0  0  0  0  0
    2.6061   -3.2814   -0.9140 O   0  0  0  0  0  0  0  0  0  0  0  0
    3.0346   -2.9683   -2.1433 C   0  0  0  0  0  0  0  0  0  0  0  0
    2.6290   -3.4326   -3.2126 O   0  0  0  0  0  0  0  0  0  0  0  0
    5.1738   -4.2592    0.4274 C   0  0  1  0  0  0  0  0  0  0  0  0
    6.0165   -5.0733    1.4142 C   0  0  0  0  0  0  0  0  0  0  0  0
    4.6134   -5.2634   -0.3513 O   0  0  0  0  0  0  0  0  0  0  0  0
    2.9274   -4.1972    2.3459 H   0  0  0  0  0  0  0  0  0  0  0  0
    3.0667   -2.4999    2.7607 H   0  0  0  0  0  0  0  0  0  0  0  0
    4.3931   -3.6204    3.1017 H   0  0  0  0  0  0  0  0  0  0  0  0
    7.9594   -2.3961   -0.1440 H   0  0  0  0  0  0  0  0  0  0  0  0
    7.7316   -3.7947   -1.2444 H   0  0  0  0  0  0  0  0  0  0  0  0
    5.5160   -3.5928   -2.3364 H   0  0  0  0  0  0  0  0  0  0  0  0
    4.9639   -1.4730   -4.0029 H   0  0  0  0  0  0  0  0  0  0  0  0
    3.2533   -1.2740   -4.0010 H   0  0  0  0  0  0  0  0  0  0  0  0
    3.3630    0.5909   -2.9531 H   0  0  0  0  0  0  0  0  0  0  0  0
    4.2199   -0.4744   -0.3867 H   0  0  0  0  0  0  0  0  0  0  0  0
    2.6797   -0.6685   -1.1734 H   0  0  0  0  0  0  0  0  0  0  0  0
    2.2780   -2.0526    0.7156 H   0  0  0  0  0  0  0  0  0  0  0  0
    6.5463   -4.4435    2.1216 H   0  0  0  0  0  0  0  0  0  0  0  0
    6.7633   -5.6720    0.8869 H   0  0  0  0  0  0  0  0  0  0  0  0
    5.3800   -5.7469    1.9899 H   0  0  0  0  0  0  0  0  0  0  0  0
    4.0212   -4.8476   -0.9688 H   0  0  0  0  0  0  0  0  0  0  0  0
  2  1  1  1
  1 20  1  0
  1 21  1  0
  1 22  1  0
  2 13  1  0
  2 17  1  0
  2  3  1  0
  3  4  2  0
  3  5  1  0
  5  8  1  0
  5  6  1  6
  5 17  1  0
  6  7  1  0
  6 23  1  0
  6 24  1  0
  7  8  1  0
  8  9  1  0
  8 25  1  6
  9 15  1  0
  9 10  1  6
  9 12  1  0
 10 11  1  0
 10 26  1  0
 10 27  1  0
 11 28  1  0
 12 13  1  0
 12 29  1  0
 12 30  1  0
 13 14  1  0
 13 31  1  1
 14 15  1  0
 15 16  2  0
 17 18  1  0
 17 19  1  6
 18 32  1  0
 18 33  1  0
 18 34  1  0
 19 35  1  0
M  END
>  <i_m_ct_stereo_status>  (342) 
1

>  <s_m_source_file>  (342) 
/var/tmp/pbs.5083858.sched01/tmpidrm27xv/140qfbh568q.sdf

>  <i_m_source_file_index>  (342) 
5

>  <i_lp_mmshare_version>  (342) 
48012

>  <i_f3d_flags>  (342) 
0

>  <s_epik_input>  (342) 
Tz1DMVtDQF0oW0NIM10pKFtDQEBdMihbQ0gzXSlbT0hdKVtDQEhdKE9DMz1PKVtDSDJdW0NAQF0zKFtDSDJdW09IXSlbQ0BIXShbQ0BAXTEyNClPW0NIMl00

>  <s_epik_cmdline>  (342) 
J2VwaWtfcHl0aG9uJywgJy1waHQnLCAnMi4wJywgJy1waCcsICc3LjAnLCAnLXRuJywgJzgnLCAnLW1hJywgJzIwMCcsICctaW1hZScsICc8aW5maWxlLm1hZT4nLCAnLW9tYWUnLCAnPG91dGZpbGUubWFlPic=

>  <r_lp_tautomer_probability>  (342) 
1

>  <r_epik_Ionization_Penalty>  (342) 
3.65292e-06

>  <r_epik_Ionization_Penalty_Charging>  (342) 
0

>  <r_epik_Ionization_Penalty_Neutral>  (342) 
3.65292e-06

>  <r_epik_State_Penalty>  (342) 
0

>  <r_epik_Charging_Adjusted_Penalty>  (342) 
0

>  <i_epik_Tot_Q>  (342) 
0

>  <i_epik_Tot_abs_Q>  (342) 
0

>  <s_epik_Chemistry_Notes>  (342) 
This compound has an ester and may undergo hydrolysis at high or low pH.

>  <s_lp_Force_Field>  (342) 
OPLS3e

>  <r_lp_Energy>  (342) 
18.2939

>  <b_lp_Chiralities_Consistent>  (342) 
1

>  <s_lp_Variant>  (342) 
100:0-1

>  <s_i_glide_gridfile>  (342) 
pfpi4k_grid

>  <i_i_glide_lignum>  (342) 
5

>  <i_i_glide_rotatable_bonds>  (342) 
3

>  <r_i_docking_score>  (342) 
-3.7156

>  <r_i_glide_ligand_efficiency>  (342) 
-0.195558

>  <r_i_glide_ligand_efficiency_sa>  (342) 
-0.521828

>  <r_i_glide_ligand_efficiency_ln>  (342) 
-0.941986

>  <r_i_glide_gscore>  (342) 
-3.7156

>  <r_i_glide_lipo>  (342) 
-0.351262

>  <r_i_glide_hbond>  (342) 
-0.334444

>  <r_i_glide_metal>  (342) 
-0

>  <r_i_glide_rewards>  (342) 
-1.65907

>  <r_i_glide_evdw>  (342) 
-16.7515

>  <r_i_glide_ecoul>  (342) 
-5.07335

>  <r_i_glide_erotb>  (342) 
0.247998

>  <r_i_glide_esite>  (342) 
-0.0202482

>  <r_i_glide_emodel>  (342) 
-24.4188

>  <r_i_glide_energy>  (342) 
-21.8248

>  <r_i_glide_einternal>  (342) 
4.55599

>  <r_i_glide_intrahb_reward>  (342) 
-0

>  <i_i_glide_confnum>  (342) 
6

>  <i_i_glide_posenum>  (342) 
1

>  <r_i_glide_eff_state_penalty>  (342) 
0

>  <ligand_id>  (342) 
100

>  <original_smiles>  (342) 
CC12C(=O)C3(COC3C3(CO)CC1OC3=O)C2(C)O

>  <smiles>  (342) 
[H]OC([H])([H])C12C(=O)OC([H])(C1([H])[H])C1(C([H])([H])[H])C(=O)C3(C([H])([H])OC23[H])C1(O[H])C([H])([H])[H]

$$$$
100:0:2
     RDKit          3D

 35 38  0  0  1  0  0  0  0  0999 V2000
    3.2551   -3.6462    2.4072 C   0  0  0  0  0  0  0  0  0  0  0  0
    4.0045   -3.2753    1.1353 C   0  0  2  0  0  0  0  0  0  0  0  0
    5.2390   -2.3578    1.3380 C   0  0  0  0  0  0  0  0  0  0  0  0
    5.5941   -1.4876    2.1285 O   0  0  0  0  0  0  0  0  0  0  0  0
    5.8568   -3.0866    0.1151 C   0  0  2  0  0  0  0  0  0  0  0  0
    7.3209   -2.7932   -0.1693 C   0  0  0  0  0  0  0  0  0  0  0  0
    6.9070   -1.8518   -1.2065 O   0  0  0  0  0  0  0  0  0  0  0  0
    5.6437   -2.5580   -1.3167 C   0  0  2  0  0  0  0  0  0  0  0  0
    4.3290   -1.8292   -1.7471 C   0  0  2  0  0  0  0  0  0  0  0  0
    4.5297   -0.8616   -2.9458 C   0  0  0  0  0  0  0  0  0  0  0  0
    3.3674   -0.2450   -3.4761 O   0  0  0  0  0  0  0  0  0  0  0  0
    3.5738   -1.2303   -0.5689 C   0  0  0  0  0  0  0  0  0  0  0  0
    3.0327   -2.5022    0.1598 C   0  0  1  0  0  0  0  0  0  0  0  0
    2.6982   -3.3061   -0.9685 O   0  0  0  0  0  0  0  0  0  0  0  0
    3.3385   -2.9366   -2.0909 C   0  0  0  0  0  0  0  0  0  0  0  0
    3.2140   -3.4239   -3.2110 O   0  0  0  0  0  0  0  0  0  0  0  0
    5.1029   -4.3137    0.6405 C   0  0  1  0  0  0  0  0  0  0  0  0
    5.8387   -5.1909    1.6607 C   0  0  0  0  0  0  0  0  0  0  0  0
    4.6945   -5.2510   -0.3203 O   0  0  0  0  0  0  0  0  0  0  0  0
    2.6111   -4.4970    2.1969 H   0  0  0  0  0  0  0  0  0  0  0  0
    2.6193   -2.8413    2.7765 H   0  0  0  0  0  0  0  0  0  0  0  0
    3.9265   -3.9476    3.2111 H   0  0  0  0  0  0  0  0  0  0  0  0
    7.8599   -2.3131    0.6462 H   0  0  0  0  0  0  0  0  0  0  0  0
    7.8732   -3.6448   -0.5751 H   0  0  0  0  0  0  0  0  0  0  0  0
    5.8110   -3.4052   -1.9906 H   0  0  0  0  0  0  0  0  0  0  0  0
    5.1803   -0.0542   -2.6221 H   0  0  0  0  0  0  0  0  0  0  0  0
    5.0045   -1.3942   -3.7719 H   0  0  0  0  0  0  0  0  0  0  0  0
    2.9426    0.2822   -2.8106 H   0  0  0  0  0  0  0  0  0  0  0  0
    4.1388   -0.4963    0.0164 H   0  0  0  0  0  0  0  0  0  0  0  0
    2.7334   -0.6573   -0.9487 H   0  0  0  0  0  0  0  0  0  0  0  0
    2.1236   -2.2248    0.6934 H   0  0  0  0  0  0  0  0  0  0  0  0
    6.2296   -4.6117    2.4940 H   0  0  0  0  0  0  0  0  0  0  0  0
    6.6804   -5.7099    1.1986 H   0  0  0  0  0  0  0  0  0  0  0  0
    5.1573   -5.9342    2.0703 H   0  0  0  0  0  0  0  0  0  0  0  0
    4.1160   -4.7989   -0.9222 H   0  0  0  0  0  0  0  0  0  0  0  0
  2  1  1  1
  1 20  1  0
  1 21  1  0
  1 22  1  0
  2 13  1  0
  2 17  1  0
  2  3  1  0
  3  4  2  0
  3  5  1  0
  5  8  1  0
  5  6  1  1
  5 17  1  0
  6  7  1  0
  6 23  1  0
  6 24  1  0
  7  8  1  0
  8  9  1  0
  8 25  1  6
  9 15  1  0
  9 10  1  6
  9 12  1  0
 10 11  1  0
 10 26  1  0
 10 27  1  0
 11 28  1  0
 12 13  1  0
 12 29  1  0
 12 30  1  0
 13 14  1  0
 13 31  1  1
 14 15  1  0
 15 16  2  0
 17 18  1  0
 17 19  1  6
 18 32  1  0
 18 33  1  0
 18 34  1  0
 19 35  1  0
M  END
>  <i_m_ct_stereo_status>  (343) 
1

>  <s_m_source_file>  (343) 
/var/tmp/pbs.5083858.sched01/tmpidrm27xv/140qfbh568q.sdf

>  <i_m_source_file_index>  (343) 
5

>  <i_lp_mmshare_version>  (343) 
48012

>  <i_f3d_flags>  (343) 
0

>  <s_epik_input>  (343) 
Tz1DMVtDQF0oW0NIM10pKFtDQEBdMihbQ0gzXSlbT0hdKVtDQEhdKE9DMz1PKVtDSDJdW0NAQF0zKFtDSDJdW09IXSlbQ0BIXShbQ0BAXTEyNClPW0NIMl00

>  <s_epik_cmdline>  (343) 
J2VwaWtfcHl0aG9uJywgJy1waHQnLCAnMi4wJywgJy1waCcsICc3LjAnLCAnLXRuJywgJzgnLCAnLW1hJywgJzIwMCcsICctaW1hZScsICc8aW5maWxlLm1hZT4nLCAnLW9tYWUnLCAnPG91dGZpbGUubWFlPic=

>  <r_lp_tautomer_probability>  (343) 
1

>  <r_epik_Ionization_Penalty>  (343) 
3.65292e-06

>  <r_epik_Ionization_Penalty_Charging>  (343) 
0

>  <r_epik_Ionization_Penalty_Neutral>  (343) 
3.65292e-06

>  <r_epik_State_Penalty>  (343) 
0

>  <r_epik_Charging_Adjusted_Penalty>  (343) 
0

>  <i_epik_Tot_Q>  (343) 
0

>  <i_epik_Tot_abs_Q>  (343) 
0

>  <s_epik_Chemistry_Notes>  (343) 
This compound has an ester and may undergo hydrolysis at high or low pH.

>  <s_lp_Force_Field>  (343) 
OPLS3e

>  <r_lp_Energy>  (343) 
18.2939

>  <b_lp_Chiralities_Consistent>  (343) 
1

>  <s_lp_Variant>  (343) 
100:0-1

>  <s_i_glide_gridfile>  (343) 
pfpi4k_grid

>  <i_i_glide_lignum>  (343) 
5

>  <i_i_glide_rotatable_bonds>  (343) 
3

>  <r_i_docking_score>  (343) 
-3.58102

>  <r_i_glide_ligand_efficiency>  (343) 
-0.188475

>  <r_i_glide_ligand_efficiency_sa>  (343) 
-0.502927

>  <r_i_glide_ligand_efficiency_ln>  (343) 
-0.907866

>  <r_i_glide_gscore>  (343) 
-3.58102

>  <r_i_glide_lipo>  (343) 
-0.2475

>  <r_i_glide_hbond>  (343) 
-0.16

>  <r_i_glide_metal>  (343) 
-0

>  <r_i_glide_rewards>  (343) 
-1.64829

>  <r_i_glide_evdw>  (343) 
-17.8594

>  <r_i_glide_ecoul>  (343) 
-5.72762

>  <r_i_glide_erotb>  (343) 
0.247998

>  <r_i_glide_esite>  (343) 
-0.0211186

>  <r_i_glide_emodel>  (343) 
-28.2161

>  <r_i_glide_energy>  (343) 
-23.587

>  <r_i_glide_einternal>  (343) 
1.32255

>  <r_i_glide_intrahb_reward>  (343) 
-0

>  <i_i_glide_confnum>  (343) 
5

>  <i_i_glide_posenum>  (343) 
29

>  <r_i_glide_eff_state_penalty>  (343) 
0

>  <ligand_id>  (343) 
100

>  <original_smiles>  (343) 
CC12C(=O)C3(COC3C3(CO)CC1OC3=O)C2(C)O

>  <smiles>  (343) 
[H]OC([H])([H])C12C(=O)OC([H])(C1([H])[H])C1(C([H])([H])[H])C(=O)C3(C([H])([H])OC23[H])C1(O[H])C([H])([H])[H]

$$$$
101:0:0
     RDKit          3D

 55 60  0  0  1  0  0  0  0  0999 V2000
    4.4647    4.4509    5.6202 C   0  0  0  0  0  0  0  0  0  0  0  0
    3.1959    4.0345    6.1112 O   0  0  0  0  0  0  0  0  0  0  0  0
    2.6819    2.8083    5.6076 C   0  0  2  0  0  0  0  0  0  0  0  0
    3.6084    1.6504    5.9148 C   0  0  0  0  0  0  0  0  0  0  0  0
    3.2644    0.6493    5.1205 C   0  0  0  0  0  0  0  0  0  0  0  0
    2.0794    1.1163    4.3152 C   0  0  2  0  0  0  0  0  0  0  0  0
    2.0240    0.3372    3.1399 O   0  0  0  0  0  0  0  0  0  0  0  0
    2.4350    2.6743    4.0908 C   0  0  1  0  0  0  0  0  0  0  0  0
    1.4213    3.6097    3.5060 O   0  0  0  0  0  0  0  0  0  0  0  0
    1.0576    4.8157    4.1488 C   0  0  0  0  0  0  0  0  0  0  0  0
    1.9910    5.8630    4.2368 C   0  0  0  0  0  0  0  0  0  0  0  0
    2.9583    6.0719    3.2881 O   0  0  0  0  0  0  0  0  0  0  0  0
    1.9602    6.6161    5.4497 C   0  0  0  0  0  0  0  0  0  0  0  0
    1.1700    6.1888    6.5645 C   0  0  0  0  0  0  0  0  0  0  0  0
    0.1926    5.1827    6.3935 C   0  0  0  0  0  0  0  0  0  0  0  0
   -0.0454    4.8282    5.0512 C   0  0  0  0  0  0  0  0  0  0  0  0
   -1.3084    4.0726    4.6037 C   0  0  0  0  0  0  0  0  0  0  0  0
   -1.4104    3.3346    3.2628 C   0  0  2  0  0  0  0  0  0  0  0  0
   -3.1592    3.3383    2.8878 Cl  0  0  0  0  0  0  0  0  0  0  0  0
   -0.9329    1.8475    3.1876 C   0  0  1  0  0  0  0  0  0  0  0  0
    0.0024    1.7383    2.1370 O   0  0  0  0  0  0  0  0  0  0  0  0
   -0.5751    1.0355    4.4988 C   0  0  1  0  0  0  0  0  0  0  0  0
   -0.7871   -0.3190    4.1561 O   0  0  0  0  0  0  0  0  0  0  0  0
    0.8223    1.1079    5.2829 C   0  0  1  0  0  0  0  0  0  0  0  0
    0.6675    0.3267    6.6286 C   0  0  0  0  0  0  0  0  0  0  0  0
    0.0038    1.3404    7.6342 C   0  0  0  0  0  0  0  0  0  0  0  0
    0.6768    2.7088    7.3946 C   0  0  2  0  0  0  0  0  0  0  0  0
    1.7284    2.7936    8.3375 O   0  0  0  0  0  0  0  0  0  0  0  0
   -0.1818    4.0695    7.4334 C   0  0  0  0  0  0  0  0  0  0  0  0
    1.2379    2.3974    6.0139 C   0  0  1  0  0  0  0  0  0  0  0  0
    4.6265    5.4774    5.9495 H   0  0  0  0  0  0  0  0  0  0  0  0
    4.4813    4.4556    4.5344 H   0  0  0  0  0  0  0  0  0  0  0  0
    5.2962    3.8387    5.9690 H   0  0  0  0  0  0  0  0  0  0  0  0
    4.3738    1.6496    6.6749 H   0  0  0  0  0  0  0  0  0  0  0  0
    3.6838   -0.3449    5.0887 H   0  0  0  0  0  0  0  0  0  0  0  0
    1.4333    0.7896    2.5388 H   0  0  0  0  0  0  0  0  0  0  0  0
    3.3559    2.7581    3.5148 H   0  0  0  0  0  0  0  0  0  0  0  0
    2.9594    5.4368    2.5816 H   0  0  0  0  0  0  0  0  0  0  0  0
    2.7127    7.3683    5.6101 H   0  0  0  0  0  0  0  0  0  0  0  0
    1.4134    6.5561    7.5504 H   0  0  0  0  0  0  0  0  0  0  0  0
   -1.7183    3.4322    5.3812 H   0  0  0  0  0  0  0  0  0  0  0  0
   -2.0125    4.8946    4.5322 H   0  0  0  0  0  0  0  0  0  0  0  0
   -0.9768    3.9467    2.4816 H   0  0  0  0  0  0  0  0  0  0  0  0
   -1.7860    1.3128    2.7697 H   0  0  0  0  0  0  0  0  0  0  0  0
   -0.1536    2.4398    1.5094 H   0  0  0  0  0  0  0  0  0  0  0  0
   -1.3714    1.2419    5.2090 H   0  0  0  0  0  0  0  0  0  0  0  0
   -0.1430   -0.5364    3.4932 H   0  0  0  0  0  0  0  0  0  0  0  0
    0.0727   -0.5808    6.5289 H   0  0  0  0  0  0  0  0  0  0  0  0
    1.6296    0.0135    7.0370 H   0  0  0  0  0  0  0  0  0  0  0  0
   -1.0643    1.4177    7.4365 H   0  0  0  0  0  0  0  0  0  0  0  0
    0.1025    1.0066    8.6686 H   0  0  0  0  0  0  0  0  0  0  0  0
    1.3576    2.9731    9.1905 H   0  0  0  0  0  0  0  0  0  0  0  0
   -0.0599    4.5253    8.4156 H   0  0  0  0  0  0  0  0  0  0  0  0
   -1.2492    3.8520    7.3796 H   0  0  0  0  0  0  0  0  0  0  0  0
    0.5017    2.7798    5.4237 H   0  0  0  0  0  0  0  0  0  0  0  0
  1  2  1  0
  1 31  1  0
  1 32  1  0
  1 33  1  0
  3  2  1  6
  3  8  1  0
  3 30  1  0
  3  4  1  0
  4  5  2  0
  4 34  1  0
  5  6  1  0
  5 35  1  0
  6 24  1  0
  6  7  1  6
  6  8  1  0
  7 36  1  0
  8  9  1  0
  8 37  1  6
  9 10  1  0
 10 16  2  0
 10 11  1  0
 11 12  1  0
 11 13  2  0
 12 38  1  0
 13 14  1  0
 13 39  1  0
 14 15  2  0
 14 40  1  0
 15 29  1  0
 15 16  1  0
 16 17  1  0
 17 18  1  0
 17 41  1  0
 17 42  1  0
 18 19  1  0
 18 20  1  0
 18 43  1  6
 20 21  1  0
 20 22  1  0
 20 44  1  6
 21 45  1  0
 22 23  1  0
 22 24  1  0
 22 46  1  1
 23 47  1  0
 24 30  1  0
 24 25  1  1
 25 26  1  0
 25 48  1  0
 25 49  1  0
 26 27  1  0
 26 50  1  0
 26 51  1  0
 27 28  1  1
 27 29  1  0
 27 30  1  0
 28 52  1  0
 29 53  1  0
 29 54  1  0
 30 55  1  6
M  END
>  <i_m_ct_stereo_status>  (344) 
1

>  <s_m_source_file>  (344) 
/var/tmp/pbs.5083858.sched01/tmpkw71y9o9/1459sfe72gm.sdf

>  <i_m_source_file_index>  (344) 
1

>  <i_lp_mmshare_version>  (344) 
48012

>  <i_f3d_flags>  (344) 
0

>  <s_epik_input>  (344) 
W09IXVtDQF0xKFtDQEBdMjM0KVtDQEBIXTVbQ0BdKE9bQ0gzXSkoW0NIXT1bQ0hdMSlbQ0BASF00W0NAXShbT0hdKShbQ0gyXVtDSDJdMylbQ0gyXWM2YyhjKE81KWMoW09IXSlbY0hdW2NIXTYpW0NIMl1bQ0BIXShDbClbQ0BASF0oW09IXSlbQ0BIXTJbT0hd

>  <s_epik_cmdline>  (344) 
J2VwaWtfcHl0aG9uJywgJy1waHQnLCAnMi4wJywgJy1waCcsICc3LjAnLCAnLXRuJywgJzgnLCAnLW1hJywgJzIwMCcsICctaW1hZScsICc8aW5maWxlLm1hZT4nLCAnLW9tYWUnLCAnPG91dGZpbGUubWFlPic=

>  <r_lp_tautomer_probability>  (344) 
1

>  <r_epik_Ionization_Penalty>  (344) 
0.000197541

>  <r_epik_Ionization_Penalty_Charging>  (344) 
0

>  <r_epik_Ionization_Penalty_Neutral>  (344) 
0.000197541

>  <r_epik_State_Penalty>  (344) 
-0

>  <r_epik_Charging_Adjusted_Penalty>  (344) 
0

>  <i_epik_Tot_Q>  (344) 
0

>  <i_epik_Tot_abs_Q>  (344) 
0

>  <s_lp_Force_Field>  (344) 
OPLS3e

>  <r_lp_Energy>  (344) 
191.453

>  <b_lp_Chiralities_Consistent>  (344) 
1

>  <s_lp_Variant>  (344) 
101:0-1

>  <s_i_glide_gridfile>  (344) 
pfpi4k_grid

>  <i_i_glide_lignum>  (344) 
1

>  <i_i_glide_rotatable_bonds>  (344) 
6

>  <r_i_docking_score>  (344) 
-2.32319

>  <r_i_glide_ligand_efficiency>  (344) 
-0.0774398

>  <r_i_glide_ligand_efficiency_sa>  (344) 
-0.240623

>  <r_i_glide_ligand_efficiency_ln>  (344) 
-0.527855

>  <r_i_glide_gscore>  (344) 
-2.32319

>  <r_i_glide_lipo>  (344) 
-0.000452838

>  <r_i_glide_hbond>  (344) 
0

>  <r_i_glide_metal>  (344) 
-0

>  <r_i_glide_rewards>  (344) 
-0.930347

>  <r_i_glide_evdw>  (344) 
-21.7404

>  <r_i_glide_ecoul>  (344) 
-2.03582

>  <r_i_glide_erotb>  (344) 
0

>  <r_i_glide_esite>  (344) 
0

>  <r_i_glide_emodel>  (344) 
-32.3342

>  <r_i_glide_energy>  (344) 
-23.7762

>  <r_i_glide_einternal>  (344) 
1.2023

>  <r_i_glide_intrahb_reward>  (344) 
-0.5

>  <i_i_glide_confnum>  (344) 
2

>  <i_i_glide_posenum>  (344) 
20

>  <r_i_glide_eff_state_penalty>  (344) 
0

>  <ligand_id>  (344) 
101

>  <original_smiles>  (344) 
COC12C=CC3(O)C1Oc1c(O)ccc4c1CC(Cl)C(O)C(O)C31CCC(O)(C4)C21

>  <smiles>  (344) 
[H]Oc1c([H])c([H])c2c3c1OC1([H])C4(OC([H])([H])[H])C([H])=C([H])C1(O[H])C1(C([H])([H])C([H])([H])C(O[H])(C2([H])[H])C41[H])C([H])(O[H])C([H])(O[H])C([H])(Cl)C3([H])[H]

$$$$
101:0:1
     RDKit          3D

 55 60  0  0  1  0  0  0  0  0999 V2000
    4.4397    3.8997    5.6962 C   0  0  0  0  0  0  0  0  0  0  0  0
    3.1206    3.8617    6.2307 O   0  0  0  0  0  0  0  0  0  0  0  0
    2.4074    2.6432    6.0832 C   0  0  2  0  0  0  0  0  0  0  0  0
    3.0992    1.5065    6.7989 C   0  0  0  0  0  0  0  0  0  0  0  0
    2.6053    0.3788    6.3240 C   0  0  0  0  0  0  0  0  0  0  0  0
    1.5493    0.7533    5.3162 C   0  0  2  0  0  0  0  0  0  0  0  0
    1.4253   -0.3235    4.4148 O   0  0  0  0  0  0  0  0  0  0  0  0
    2.1773    2.0874    4.6600 C   0  0  1  0  0  0  0  0  0  0  0  0
    1.3691    2.9449    3.7355 O   0  0  0  0  0  0  0  0  0  0  0  0
    1.1996    4.3292    3.9502 C   0  0  0  0  0  0  0  0  0  0  0  0
    2.2922    5.2060    3.7777 C   0  0  0  0  0  0  0  0  0  0  0  0
    3.2744    4.9810    2.8618 O   0  0  0  0  0  0  0  0  0  0  0  0
    2.3669    6.2857    4.7185 C   0  0  0  0  0  0  0  0  0  0  0  0
    1.4975    6.3458    5.8428 C   0  0  0  0  0  0  0  0  0  0  0  0
    0.3665    5.5133    5.9110 C   0  0  0  0  0  0  0  0  0  0  0  0
    0.1010    4.7978    4.7271 C   0  0  0  0  0  0  0  0  0  0  0  0
   -1.2581    4.1419    4.4244 C   0  0  0  0  0  0  0  0  0  0  0  0
   -1.4533    3.0572    3.3710 C   0  0  2  0  0  0  0  0  0  0  0  0
   -3.1585    3.2656    2.8819 Cl  0  0  0  0  0  0  0  0  0  0  0  0
   -1.2466    1.5664    3.7858 C   0  0  1  0  0  0  0  0  0  0  0  0
   -0.3605    0.9608    2.8726 O   0  0  0  0  0  0  0  0  0  0  0  0
   -1.0872    1.1563    5.3053 C   0  0  1  0  0  0  0  0  0  0  0  0
   -1.5856   -0.1701    5.4212 O   0  0  0  0  0  0  0  0  0  0  0  0
    0.2817    1.2423    6.1395 C   0  0  1  0  0  0  0  0  0  0  0  0
   -0.0445    0.9645    7.6446 C   0  0  0  0  0  0  0  0  0  0  0  0
   -0.5398    2.3368    8.2372 C   0  0  0  0  0  0  0  0  0  0  0  0
    0.3679    3.4367    7.6464 C   0  0  2  0  0  0  0  0  0  0  0  0
    1.3787    3.6780    8.6132 O   0  0  0  0  0  0  0  0  0  0  0  0
   -0.2337    4.8546    7.2012 C   0  0  0  0  0  0  0  0  0  0  0  0
    0.9029    2.6161    6.4789 C   0  0  1  0  0  0  0  0  0  0  0  0
    4.7655    4.9408    5.7063 H   0  0  0  0  0  0  0  0  0  0  0  0
    4.4454    3.5743    4.6608 H   0  0  0  0  0  0  0  0  0  0  0  0
    5.1641    3.3040    6.2525 H   0  0  0  0  0  0  0  0  0  0  0  0
    3.8400    1.6185    7.5796 H   0  0  0  0  0  0  0  0  0  0  0  0
    2.8383   -0.6331    6.6274 H   0  0  0  0  0  0  0  0  0  0  0  0
    0.9154   -0.0042    3.6722 H   0  0  0  0  0  0  0  0  0  0  0  0
    3.1127    1.8301    4.1630 H   0  0  0  0  0  0  0  0  0  0  0  0
    3.2559    4.1393    2.4414 H   0  0  0  0  0  0  0  0  0  0  0  0
    3.2423    6.9144    4.6959 H   0  0  0  0  0  0  0  0  0  0  0  0
    1.7789    6.9605    6.6931 H   0  0  0  0  0  0  0  0  0  0  0  0
   -1.8094    3.8731    5.3262 H   0  0  0  0  0  0  0  0  0  0  0  0
   -1.7904    4.9979    4.0205 H   0  0  0  0  0  0  0  0  0  0  0  0
   -0.8816    3.3263    2.4801 H   0  0  0  0  0  0  0  0  0  0  0  0
   -2.1843    1.0957    3.4913 H   0  0  0  0  0  0  0  0  0  0  0  0
   -0.5467    1.2957    2.0054 H   0  0  0  0  0  0  0  0  0  0  0  0
   -1.8422    1.7271    5.8429 H   0  0  0  0  0  0  0  0  0  0  0  0
   -2.2688   -0.2707    4.7827 H   0  0  0  0  0  0  0  0  0  0  0  0
   -0.7903    0.1849    7.7791 H   0  0  0  0  0  0  0  0  0  0  0  0
    0.8333    0.6397    8.2030 H   0  0  0  0  0  0  0  0  0  0  0  0
   -1.5729    2.5215    7.9395 H   0  0  0  0  0  0  0  0  0  0  0  0
   -0.5348    2.3355    9.3271 H   0  0  0  0  0  0  0  0  0  0  0  0
    1.8069    2.8691    8.8251 H   0  0  0  0  0  0  0  0  0  0  0  0
   -0.0513    5.5672    8.0094 H   0  0  0  0  0  0  0  0  0  0  0  0
   -1.3184    4.8056    7.1378 H   0  0  0  0  0  0  0  0  0  0  0  0
    0.2631    2.9035    5.7392 H   0  0  0  0  0  0  0  0  0  0  0  0
  1  2  1  0
  1 31  1  0
  1 32  1  0
  1 33  1  0
  3  2  1  6
  3  8  1  0
  3 30  1  0
  3  4  1  0
  4  5  2  0
  4 34  1  0
  5  6  1  0
  5 35  1  0
  6 24  1  0
  6  7  1  6
  6  8  1  0
  7 36  1  0
  8  9  1  0
  8 37  1  6
  9 10  1  0
 10 16  2  0
 10 11  1  0
 11 12  1  0
 11 13  2  0
 12 38  1  0
 13 14  1  0
 13 39  1  0
 14 15  2  0
 14 40  1  0
 15 29  1  0
 15 16  1  0
 16 17  1  0
 17 18  1  0
 17 41  1  0
 17 42  1  0
 18 19  1  0
 18 20  1  0
 18 43  1  6
 20 21  1  0
 20 22  1  0
 20 44  1  6
 21 45  1  0
 22 23  1  0
 22 24  1  0
 22 46  1  1
 23 47  1  0
 24 30  1  0
 24 25  1  1
 25 26  1  0
 25 48  1  0
 25 49  1  0
 26 27  1  0
 26 50  1  0
 26 51  1  0
 27 28  1  1
 27 29  1  0
 27 30  1  0
 28 52  1  0
 29 53  1  0
 29 54  1  0
 30 55  1  6
M  END
>  <i_m_ct_stereo_status>  (345) 
1

>  <s_m_source_file>  (345) 
/var/tmp/pbs.5083858.sched01/tmpkw71y9o9/1459sfe72gm.sdf

>  <i_m_source_file_index>  (345) 
1

>  <i_lp_mmshare_version>  (345) 
48012

>  <i_f3d_flags>  (345) 
0

>  <s_epik_input>  (345) 
W09IXVtDQF0xKFtDQEBdMjM0KVtDQEBIXTVbQ0BdKE9bQ0gzXSkoW0NIXT1bQ0hdMSlbQ0BASF00W0NAXShbT0hdKShbQ0gyXVtDSDJdMylbQ0gyXWM2YyhjKE81KWMoW09IXSlbY0hdW2NIXTYpW0NIMl1bQ0BIXShDbClbQ0BASF0oW09IXSlbQ0BIXTJbT0hd

>  <s_epik_cmdline>  (345) 
J2VwaWtfcHl0aG9uJywgJy1waHQnLCAnMi4wJywgJy1waCcsICc3LjAnLCAnLXRuJywgJzgnLCAnLW1hJywgJzIwMCcsICctaW1hZScsICc8aW5maWxlLm1hZT4nLCAnLW9tYWUnLCAnPG91dGZpbGUubWFlPic=

>  <r_lp_tautomer_probability>  (345) 
1

>  <r_epik_Ionization_Penalty>  (345) 
0.000197541

>  <r_epik_Ionization_Penalty_Charging>  (345) 
0

>  <r_epik_Ionization_Penalty_Neutral>  (345) 
0.000197541

>  <r_epik_State_Penalty>  (345) 
-0

>  <r_epik_Charging_Adjusted_Penalty>  (345) 
0

>  <i_epik_Tot_Q>  (345) 
0

>  <i_epik_Tot_abs_Q>  (345) 
0

>  <s_lp_Force_Field>  (345) 
OPLS3e

>  <r_lp_Energy>  (345) 
191.453

>  <b_lp_Chiralities_Consistent>  (345) 
1

>  <s_lp_Variant>  (345) 
101:0-1

>  <s_i_glide_gridfile>  (345) 
pfpi4k_grid

>  <i_i_glide_lignum>  (345) 
1

>  <i_i_glide_rotatable_bonds>  (345) 
6

>  <r_i_docking_score>  (345) 
-2.31304

>  <r_i_glide_ligand_efficiency>  (345) 
-0.0771012

>  <r_i_glide_ligand_efficiency_sa>  (345) 
-0.239571

>  <r_i_glide_ligand_efficiency_ln>  (345) 
-0.525547

>  <r_i_glide_gscore>  (345) 
-2.31304

>  <r_i_glide_lipo>  (345) 
-0.000589818

>  <r_i_glide_hbond>  (345) 
0

>  <r_i_glide_metal>  (345) 
-0

>  <r_i_glide_rewards>  (345) 
-0.930347

>  <r_i_glide_evdw>  (345) 
-21.6116

>  <r_i_glide_ecoul>  (345) 
-2.01012

>  <r_i_glide_erotb>  (345) 
0

>  <r_i_glide_esite>  (345) 
0

>  <r_i_glide_emodel>  (345) 
-31.9051

>  <r_i_glide_energy>  (345) 
-23.6217

>  <r_i_glide_einternal>  (345) 
1.4015

>  <r_i_glide_intrahb_reward>  (345) 
-0.5

>  <i_i_glide_confnum>  (345) 
2

>  <i_i_glide_posenum>  (345) 
8

>  <r_i_glide_eff_state_penalty>  (345) 
0

>  <ligand_id>  (345) 
101

>  <original_smiles>  (345) 
COC12C=CC3(O)C1Oc1c(O)ccc4c1CC(Cl)C(O)C(O)C31CCC(O)(C4)C21

>  <smiles>  (345) 
[H]Oc1c([H])c([H])c2c3c1OC1([H])C4(OC([H])([H])[H])C([H])=C([H])C1(O[H])C1(C([H])([H])C([H])([H])C(O[H])(C2([H])[H])C41[H])C([H])(O[H])C([H])(O[H])C([H])(Cl)C3([H])[H]

$$$$
101:0:2
     RDKit          3D

 55 60  0  0  1  0  0  0  0  0999 V2000
    4.3451    3.8313    5.6477 C   0  0  0  0  0  0  0  0  0  0  0  0
    3.0450    3.5941    6.1816 O   0  0  0  0  0  0  0  0  0  0  0  0
    2.4038    2.3998    5.7565 C   0  0  2  0  0  0  0  0  0  0  0  0
    3.1880    1.1823    6.1851 C   0  0  0  0  0  0  0  0  0  0  0  0
    2.7427    0.1598    5.4871 C   0  0  0  0  0  0  0  0  0  0  0  0
    1.6315    0.6646    4.6076 C   0  0  2  0  0  0  0  0  0  0  0  0
    1.5252   -0.2705    3.5530 O   0  0  0  0  0  0  0  0  0  0  0  0
    2.1509    2.1584    4.2477 C   0  0  1  0  0  0  0  0  0  0  0  0
    1.2556    3.1543    3.5694 O   0  0  0  0  0  0  0  0  0  0  0  0
    1.0121    4.4424    4.0973 C   0  0  0  0  0  0  0  0  0  0  0  0
    2.0574    5.3999    4.0948 C   0  0  0  0  0  0  0  0  0  0  0  0
    3.0097    5.4543    3.1224 O   0  0  0  0  0  0  0  0  0  0  0  0
    2.1007    6.2403    5.2613 C   0  0  0  0  0  0  0  0  0  0  0  0
    1.2744    5.9950    6.3925 C   0  0  0  0  0  0  0  0  0  0  0  0
    0.1879    5.1017    6.3036 C   0  0  0  0  0  0  0  0  0  0  0  0
   -0.0727    4.6514    4.9934 C   0  0  0  0  0  0  0  0  0  0  0  0
   -1.4095    4.0080    4.5743 C   0  0  0  0  0  0  0  0  0  0  0  0
   -1.5713    3.1745    3.2984 C   0  0  2  0  0  0  0  0  0  0  0  0
   -3.3030    3.3409    2.8785 Cl  0  0  0  0  0  0  0  0  0  0  0  0
   -1.2522    1.6478    3.3659 C   0  0  1  0  0  0  0  0  0  0  0  0
   -0.3773    1.3223    2.3154 O   0  0  0  0  0  0  0  0  0  0  0  0
   -1.0131    0.9109    4.7410 C   0  0  1  0  0  0  0  0  0  0  0  0
   -1.3587   -0.4403    4.5074 O   0  0  0  0  0  0  0  0  0  0  0  0
    0.3738    0.8868    5.5464 C   0  0  1  0  0  0  0  0  0  0  0  0
    0.1136    0.2514    6.9509 C   0  0  0  0  0  0  0  0  0  0  0  0
   -0.4364    1.4203    7.8523 C   0  0  0  0  0  0  0  0  0  0  0  0
    0.3767    2.6838    7.4975 C   0  0  2  0  0  0  0  0  0  0  0  0
    1.4323    2.7646    8.4346 O   0  0  0  0  0  0  0  0  0  0  0  0
   -0.3256    4.1223    7.4124 C   0  0  0  0  0  0  0  0  0  0  0  0
    0.9182    2.1872    6.1662 C   0  0  1  0  0  0  0  0  0  0  0  0
    4.6126    4.8641    5.8751 H   0  0  0  0  0  0  0  0  0  0  0  0
    4.3425    3.7317    4.5678 H   0  0  0  0  0  0  0  0  0  0  0  0
    5.1212    3.1714    6.0373 H   0  0  0  0  0  0  0  0  0  0  0  0
    3.9469    1.1609    6.9562 H   0  0  0  0  0  0  0  0  0  0  0  0
    3.0496   -0.8754    5.5488 H   0  0  0  0  0  0  0  0  0  0  0  0
    2.1285   -0.0152    2.8709 H   0  0  0  0  0  0  0  0  0  0  0  0
    3.0822    2.0881    3.6867 H   0  0  0  0  0  0  0  0  0  0  0  0
    3.0134    4.7243    2.5244 H   0  0  0  0  0  0  0  0  0  0  0  0
    2.9386    6.9140    5.3637 H   0  0  0  0  0  0  0  0  0  0  0  0
    1.5478    6.4213    7.3543 H   0  0  0  0  0  0  0  0  0  0  0  0
   -1.9008    3.4858    5.3915 H   0  0  0  0  0  0  0  0  0  0  0  0
   -2.0146    4.8996    4.4192 H   0  0  0  0  0  0  0  0  0  0  0  0
   -1.0469    3.6697    2.4804 H   0  0  0  0  0  0  0  0  0  0  0  0
   -2.1543    1.1933    2.9897 H   0  0  0  0  0  0  0  0  0  0  0  0
   -0.5757    1.8680    1.5683 H   0  0  0  0  0  0  0  0  0  0  0  0
   -1.7941    1.2563    5.4155 H   0  0  0  0  0  0  0  0  0  0  0  0
   -0.6981   -0.7738    3.9156 H   0  0  0  0  0  0  0  0  0  0  0  0
   -0.5803   -0.5868    6.9143 H   0  0  0  0  0  0  0  0  0  0  0  0
    1.0287   -0.1284    7.4041 H   0  0  0  0  0  0  0  0  0  0  0  0
   -1.4882    1.5991    7.6287 H   0  0  0  0  0  0  0  0  0  0  0  0
   -0.3846    1.1806    8.9149 H   0  0  0  0  0  0  0  0  0  0  0  0
    2.0399    3.4189    8.1254 H   0  0  0  0  0  0  0  0  0  0  0  0
   -0.1603    4.6363    8.3585 H   0  0  0  0  0  0  0  0  0  0  0  0
   -1.4083    4.0182    7.3572 H   0  0  0  0  0  0  0  0  0  0  0  0
    0.2342    2.5889    5.5258 H   0  0  0  0  0  0  0  0  0  0  0  0
  1  2  1  0
  1 31  1  0
  1 32  1  0
  1 33  1  0
  3  2  1  6
  3  8  1  0
  3 30  1  0
  3  4  1  0
  4  5  2  0
  4 34  1  0
  5  6  1  0
  5 35  1  0
  6 24  1  0
  6  7  1  6
  6  8  1  0
  7 36  1  0
  8  9  1  0
  8 37  1  6
  9 10  1  0
 10 16  2  0
 10 11  1  0
 11 12  1  0
 11 13  2  0
 12 38  1  0
 13 14  1  0
 13 39  1  0
 14 15  2  0
 14 40  1  0
 15 29  1  0
 15 16  1  0
 16 17  1  0
 17 18  1  0
 17 41  1  0
 17 42  1  0
 18 19  1  0
 18 20  1  0
 18 43  1  6
 20 21  1  0
 20 22  1  0
 20 44  1  6
 21 45  1  0
 22 23  1  0
 22 24  1  0
 22 46  1  1
 23 47  1  0
 24 30  1  0
 24 25  1  1
 25 26  1  0
 25 48  1  0
 25 49  1  0
 26 27  1  0
 26 50  1  0
 26 51  1  0
 27 28  1  1
 27 29  1  0
 27 30  1  0
 28 52  1  0
 29 53  1  0
 29 54  1  0
 30 55  1  6
M  END
>  <i_m_ct_stereo_status>  (346) 
1

>  <s_m_source_file>  (346) 
/var/tmp/pbs.5083858.sched01/tmpkw71y9o9/1459sfe72gm.sdf

>  <i_m_source_file_index>  (346) 
1

>  <i_lp_mmshare_version>  (346) 
48012

>  <i_f3d_flags>  (346) 
0

>  <s_epik_input>  (346) 
W09IXVtDQF0xKFtDQEBdMjM0KVtDQEBIXTVbQ0BdKE9bQ0gzXSkoW0NIXT1bQ0hdMSlbQ0BASF00W0NAXShbT0hdKShbQ0gyXVtDSDJdMylbQ0gyXWM2YyhjKE81KWMoW09IXSlbY0hdW2NIXTYpW0NIMl1bQ0BIXShDbClbQ0BASF0oW09IXSlbQ0BIXTJbT0hd

>  <s_epik_cmdline>  (346) 
J2VwaWtfcHl0aG9uJywgJy1waHQnLCAnMi4wJywgJy1waCcsICc3LjAnLCAnLXRuJywgJzgnLCAnLW1hJywgJzIwMCcsICctaW1hZScsICc8aW5maWxlLm1hZT4nLCAnLW9tYWUnLCAnPG91dGZpbGUubWFlPic=

>  <r_lp_tautomer_probability>  (346) 
1

>  <r_epik_Ionization_Penalty>  (346) 
0.000197541

>  <r_epik_Ionization_Penalty_Charging>  (346) 
0

>  <r_epik_Ionization_Penalty_Neutral>  (346) 
0.000197541

>  <r_epik_State_Penalty>  (346) 
-0

>  <r_epik_Charging_Adjusted_Penalty>  (346) 
0

>  <i_epik_Tot_Q>  (346) 
0

>  <i_epik_Tot_abs_Q>  (346) 
0

>  <s_lp_Force_Field>  (346) 
OPLS3e

>  <r_lp_Energy>  (346) 
191.453

>  <b_lp_Chiralities_Consistent>  (346) 
1

>  <s_lp_Variant>  (346) 
101:0-1

>  <s_i_glide_gridfile>  (346) 
pfpi4k_grid

>  <i_i_glide_lignum>  (346) 
1

>  <i_i_glide_rotatable_bonds>  (346) 
6

>  <r_i_docking_score>  (346) 
-2.25791

>  <r_i_glide_ligand_efficiency>  (346) 
-0.0752636

>  <r_i_glide_ligand_efficiency_sa>  (346) 
-0.233862

>  <r_i_glide_ligand_efficiency_ln>  (346) 
-0.513022

>  <r_i_glide_gscore>  (346) 
-2.25791

>  <r_i_glide_lipo>  (346) 
-0.000386789

>  <r_i_glide_hbond>  (346) 
0

>  <r_i_glide_metal>  (346) 
-0

>  <r_i_glide_rewards>  (346) 
-0.930347

>  <r_i_glide_evdw>  (346) 
-22.3422

>  <r_i_glide_ecoul>  (346) 
-1.40043

>  <r_i_glide_erotb>  (346) 
0

>  <r_i_glide_esite>  (346) 
0

>  <r_i_glide_emodel>  (346) 
-32.1795

>  <r_i_glide_energy>  (346) 
-23.7427

>  <r_i_glide_einternal>  (346) 
0.951996

>  <r_i_glide_intrahb_reward>  (346) 
-0.5

>  <i_i_glide_confnum>  (346) 
2

>  <i_i_glide_posenum>  (346) 
1

>  <r_i_glide_eff_state_penalty>  (346) 
0

>  <ligand_id>  (346) 
101

>  <original_smiles>  (346) 
COC12C=CC3(O)C1Oc1c(O)ccc4c1CC(Cl)C(O)C(O)C31CCC(O)(C4)C21

>  <smiles>  (346) 
[H]Oc1c([H])c([H])c2c3c1OC1([H])C4(OC([H])([H])[H])C([H])=C([H])C1(O[H])C1(C([H])([H])C([H])([H])C(O[H])(C2([H])[H])C41[H])C([H])(O[H])C([H])(O[H])C([H])(Cl)C3([H])[H]

$$$$
102:0:0
     RDKit          3D

 54 60  0  0  1  0  0  0  0  0999 V2000
    5.4118    0.9670    6.7675 C   0  0  0  0  0  0  0  0  0  0  0  0
    4.5578    1.5125    5.6020 C   0  0  0  0  0  0  0  0  0  0  0  0
    3.1355    1.7315    5.9724 N   0  0  2  0  0  0  0  0  0  0  0  0
    2.3860    0.4768    6.2007 C   0  0  0  0  0  0  0  0  0  0  0  0
    1.1246    1.2022    5.7187 C   0  0  2  0  0  0  0  0  0  0  0  0
    0.6592    2.3848    6.8525 C   0  0  2  0  0  0  0  0  0  0  0  0
   -0.8610    2.6458    6.9636 C   0  0  0  0  0  0  0  0  0  0  0  0
   -1.5037    3.1927    5.6677 C   0  0  2  0  0  0  0  0  0  0  0  0
   -0.4488    2.6568    4.9249 O   0  0  0  0  0  0  0  0  0  0  0  0
    0.5318    2.8632    3.6326 C   0  0  2  0  0  0  0  0  0  0  0  0
    0.3121    1.5469    2.8515 C   0  0  1  0  0  0  0  0  0  0  0  0
    0.4531    1.7416    1.4731 O   0  0  0  0  0  0  0  0  0  0  0  0
    0.6311    0.0920    3.2835 C   0  0  0  0  0  0  0  0  0  0  0  0
   -0.0521    0.4451    4.5793 C   0  0  1  0  0  0  0  0  0  0  0  0
   -0.7608   -0.6276    5.1585 O   0  0  0  0  0  0  0  0  0  0  0  0
   -1.0983    1.3241    3.3607 C   0  0  1  0  0  0  0  0  0  0  0  0
   -1.8657    2.9900    3.3677 C   0  0  1  0  0  0  0  0  0  0  0  0
   -3.2777    2.9340    3.3973 O   0  0  0  0  0  0  0  0  0  0  0  0
   -1.1304    4.1390    4.6425 C   0  0  2  0  0  0  0  0  0  0  0  0
    0.6470    4.4580    5.0826 C   0  0  1  0  0  0  0  0  0  0  0  0
    0.9394    5.8305    4.9643 O   0  0  0  0  0  0  0  0  0  0  0  0
    1.0572    3.9394    6.5492 C   0  0  0  0  0  0  0  0  0  0  0  0
    1.6922    3.4146    4.3300 C   0  0  2  0  0  0  0  0  0  0  0  0
    2.7506    4.0925    3.4136 C   0  0  0  0  0  0  0  0  0  0  0  0
    2.2266    5.0286    2.4810 O   0  0  0  0  0  0  0  0  0  0  0  0
    2.1781    1.9972    4.8901 C   0  0  1  0  0  0  0  0  0  0  0  0
    6.4635    0.8663    6.4722 H   0  0  0  0  0  0  0  0  0  0  0  0
    5.0933   -0.0264    7.0968 H   0  0  0  0  0  0  0  0  0  0  0  0
    5.3963    1.6302    7.6352 H   0  0  0  0  0  0  0  0  0  0  0  0
    4.9901    2.4535    5.2781 H   0  0  0  0  0  0  0  0  0  0  0  0
    4.6667    0.8278    4.7552 H   0  0  0  0  0  0  0  0  0  0  0  0
    2.6692   -0.3684    5.5738 H   0  0  0  0  0  0  0  0  0  0  0  0
    2.3480    0.1780    7.2415 H   0  0  0  0  0  0  0  0  0  0  0  0
    1.0138    2.1166    7.8421 H   0  0  0  0  0  0  0  0  0  0  0  0
   -1.3451    1.7059    7.2233 H   0  0  0  0  0  0  0  0  0  0  0  0
   -1.0954    3.3177    7.7885 H   0  0  0  0  0  0  0  0  0  0  0  0
   -2.4750    2.7121    5.5696 H   0  0  0  0  0  0  0  0  0  0  0  0
    0.3170    3.6487    2.8852 H   0  0  0  0  0  0  0  0  0  0  0  0
    0.2218    2.6563    1.2694 H   0  0  0  0  0  0  0  0  0  0  0  0
    0.1148   -0.6614    2.6813 H   0  0  0  0  0  0  0  0  0  0  0  0
    1.6767   -0.1900    3.3518 H   0  0  0  0  0  0  0  0  0  0  0  0
   -0.2162   -1.3924    5.0611 H   0  0  0  0  0  0  0  0  0  0  0  0
   -1.6396    0.6356    2.7196 H   0  0  0  0  0  0  0  0  0  0  0  0
   -1.7101    3.4425    2.3963 H   0  0  0  0  0  0  0  0  0  0  0  0
   -3.5381    2.1369    2.9641 H   0  0  0  0  0  0  0  0  0  0  0  0
   -1.7241    5.0264    4.7507 H   0  0  0  0  0  0  0  0  0  0  0  0
    1.0332    6.0324    4.0419 H   0  0  0  0  0  0  0  0  0  0  0  0
    0.6120    4.5999    7.2933 H   0  0  0  0  0  0  0  0  0  0  0  0
    2.1260    4.0895    6.6923 H   0  0  0  0  0  0  0  0  0  0  0  0
    3.4444    4.6454    4.0492 H   0  0  0  0  0  0  0  0  0  0  0  0
    3.3299    3.3571    2.8557 H   0  0  0  0  0  0  0  0  0  0  0  0
    1.5757    4.6281    1.9100 H   0  0  0  0  0  0  0  0  0  0  0  0
    2.6099    1.4407    4.0598 H   0  0  0  0  0  0  0  0  0  0  0  0
    3.0148    2.3508    6.7598 H   0  0  0  0  0  0  0  0  0  0  0  0
  1  2  1  0
  1 27  1  0
  1 28  1  0
  1 29  1  0
  2  3  1  0
  2 30  1  0
  2 31  1  0
  3 26  1  0
  3  4  1  0
  3 54  1  1
  5  4  1  1
  4 32  1  0
  4 33  1  0
  5 14  1  0
  5 26  1  0
  5  6  1  0
  6 22  1  0
  6  7  1  0
  6 34  1  1
  7  8  1  0
  7 35  1  0
  7 36  1  0
  8 19  1  0
  8  9  1  0
  8 37  1  6
  9 10  1  0
 10 23  1  0
 10 11  1  0
 10 38  1  6
 11 16  1  0
 11 12  1  6
 11 13  1  0
 12 39  1  0
 13 14  1  0
 13 40  1  0
 13 41  1  0
 14 15  1  1
 14 16  1  0
 15 42  1  0
 16 17  1  0
 16 43  1  6
 17 18  1  0
 17 19  1  0
 17 44  1  6
 18 45  1  0
 19 20  1  0
 19 46  1  1
 20 21  1  1
 20 22  1  0
 20 23  1  0
 21 47  1  0
 22 48  1  0
 22 49  1  0
 23 24  1  6
 23 26  1  0
 24 25  1  0
 24 50  1  0
 24 51  1  0
 25 52  1  0
 26 53  1  6
M  CHG  1   3   1
M  END
>  <i_m_ct_stereo_status>  (347) 
1

>  <s_m_source_file>  (347) 
/var/tmp/pbs.5083858.sched01/tmpkw71y9o9/1459sfe72gm.sdf

>  <i_m_source_file_index>  (347) 
2

>  <i_lp_mmshare_version>  (347) 
48012

>  <i_f3d_flags>  (347) 
0

>  <s_epik_input>  (347) 
W0NIMl0xW0NAXTIoW09IXSlbQ0BASF0oW0NASF0zW09IXSlbQ0BAXTEoW09IXSlbQ0BASF0oTzQpW0NAXShbQ0gyXVtPSF0pKFtDQEhdNU4oW0NIMl02KVtDSDJdW0NIM10pW0NAXShbT0hdKShbQ0gyXTcpW0NAQEhdM1tDQEBIXTRbQ0gyXVtDQEhdN1tDQEBdMjU2

>  <s_epik_cmdline>  (347) 
J2VwaWtfcHl0aG9uJywgJy1waHQnLCAnMi4wJywgJy1waCcsICc3LjAnLCAnLXRuJywgJzgnLCAnLW1hJywgJzIwMCcsICctaW1hZScsICc8aW5maWxlLm1hZT4nLCAnLW9tYWUnLCAnPG91dGZpbGUubWFlPic=

>  <r_epik_Ionization_Penalty>  (347) 
0.000657235

>  <r_epik_Ionization_Penalty_Charging>  (347) 
0.000656898

>  <r_epik_Ionization_Penalty_Neutral>  (347) 
3.37066e-07

>  <r_epik_State_Penalty>  (347) 
0.000416263

>  <r_epik_Charging_Adjusted_Penalty>  (347) 
0.00107316

>  <i_epik_Tot_Q>  (347) 
1

>  <i_epik_Tot_abs_Q>  (347) 
1

>  <s_lp_Force_Field>  (347) 
OPLS3e

>  <r_lp_Energy>  (347) 
600.996

>  <b_lp_Chiralities_Consistent>  (347) 
1

>  <s_lp_Variant>  (347) 
102:0-1

>  <s_i_glide_gridfile>  (347) 
pfpi4k_grid

>  <i_i_glide_lignum>  (347) 
2

>  <i_i_glide_rotatable_bonds>  (347) 
7

>  <r_i_docking_score>  (347) 
-4.04598

>  <r_i_glide_ligand_efficiency>  (347) 
-0.155615

>  <r_i_glide_ligand_efficiency_sa>  (347) 
-0.461008

>  <r_i_glide_ligand_efficiency_ln>  (347) 
-0.950186

>  <r_i_glide_gscore>  (347) 
-4.04598

>  <r_i_glide_lipo>  (347) 
-0.0147349

>  <r_i_glide_hbond>  (347) 
-0.144

>  <r_i_glide_metal>  (347) 
-0

>  <r_i_glide_rewards>  (347) 
-1.41071

>  <r_i_glide_evdw>  (347) 
-15.7401

>  <r_i_glide_ecoul>  (347) 
-12.2192

>  <r_i_glide_erotb>  (347) 
0.143348

>  <r_i_glide_esite>  (347) 
0

>  <r_i_glide_emodel>  (347) 
-40.6674

>  <r_i_glide_energy>  (347) 
-27.9593

>  <r_i_glide_einternal>  (347) 
4.78668

>  <r_i_glide_intrahb_reward>  (347) 
-0.5

>  <i_i_glide_confnum>  (347) 
3

>  <i_i_glide_posenum>  (347) 
35

>  <r_i_glide_eff_state_penalty>  (347) 
0

>  <ligand_id>  (347) 
102

>  <original_smiles>  (347) 
CCN1CC23C4CC5OC6C7(O)CC2(O)C7C(O)C5C(O)(C4)C6(CO)C13

>  <smiles>  (347) 
[H]OC([H])([H])C12C3([H])OC4([H])C([H])([H])C5([H])C([H])([H])C1(O[H])C4([H])C([H])(O[H])C1([H])C3(O[H])C([H])([H])C1(O[H])C51C([H])([H])[N+]([H])(C([H])([H])C([H])([H])[H])C21[H]

$$$$
102:0:1
     RDKit          3D

 54 60  0  0  1  0  0  0  0  0999 V2000
    3.1922   -0.8234    0.9940 C   0  0  0  0  0  0  0  0  0  0  0  0
    2.5147    0.5007    1.3991 C   0  0  0  0  0  0  0  0  0  0  0  0
    2.0366    0.5189    2.7980 N   0  0  2  0  0  0  0  0  0  0  0  0
    0.8215   -0.2901    2.9945 C   0  0  0  0  0  0  0  0  0  0  0  0
    0.4248    0.6764    4.1153 C   0  0  2  0  0  0  0  0  0  0  0  0
    1.4772    0.4906    5.4384 C   0  0  2  0  0  0  0  0  0  0  0  0
    0.8629    0.7437    6.8324 C   0  0  0  0  0  0  0  0  0  0  0  0
    0.3573    2.1880    7.0452 C   0  0  2  0  0  0  0  0  0  0  0  0
    0.2558    2.3459    5.6552 O   0  0  0  0  0  0  0  0  0  0  0  0
    0.4019    3.3951    4.4065 C   0  0  2  0  0  0  0  0  0  0  0  0
   -0.9915    3.2991    3.7390 C   0  0  1  0  0  0  0  0  0  0  0  0
   -1.3647    4.5323    3.1698 O   0  0  0  0  0  0  0  0  0  0  0  0
   -1.6792    2.0674    3.0740 C   0  0  0  0  0  0  0  0  0  0  0  0
   -1.2497    1.3039    4.3081 C   0  0  1  0  0  0  0  0  0  0  0  0
   -2.1740    0.3072    4.7107 O   0  0  0  0  0  0  0  0  0  0  0  0
   -1.7137    2.9262    5.0164 C   0  0  1  0  0  0  0  0  0  0  0  0
   -0.9519    3.9786    6.3271 C   0  0  1  0  0  0  0  0  0  0  0  0
   -1.7725    4.0825    7.4619 O   0  0  0  0  0  0  0  0  0  0  0  0
    0.8226    3.5104    6.7023 C   0  0  2  0  0  0  0  0  0  0  0  0
    2.2234    3.1055    5.5443 C   0  0  1  0  0  0  0  0  0  0  0  0
    3.3209    3.9282    5.8237 O   0  0  0  0  0  0  0  0  0  0  0  0
    2.6875    1.5683    5.6086 C   0  0  0  0  0  0  0  0  0  0  0  0
    1.7347    2.9980    3.9646 C   0  0  2  0  0  0  0  0  0  0  0  0
    2.4406    3.9923    2.9923 C   0  0  0  0  0  0  0  0  0  0  0  0
    2.3732    5.3691    3.3314 O   0  0  0  0  0  0  0  0  0  0  0  0
    1.2308    1.6698    3.2287 C   0  0  1  0  0  0  0  0  0  0  0  0
    3.5790   -0.7720   -0.0307 H   0  0  0  0  0  0  0  0  0  0  0  0
    2.4991   -1.6680    1.0041 H   0  0  0  0  0  0  0  0  0  0  0  0
    4.0431   -1.0688    1.6303 H   0  0  0  0  0  0  0  0  0  0  0  0
    3.2378    1.2975    1.2750 H   0  0  0  0  0  0  0  0  0  0  0  0
    1.7080    0.6885    0.6884 H   0  0  0  0  0  0  0  0  0  0  0  0
    0.1185   -0.2942    2.1647 H   0  0  0  0  0  0  0  0  0  0  0  0
    1.0085   -1.3038    3.3321 H   0  0  0  0  0  0  0  0  0  0  0  0
    1.8981   -0.5099    5.4514 H   0  0  0  0  0  0  0  0  0  0  0  0
    0.0308    0.0561    6.9644 H   0  0  0  0  0  0  0  0  0  0  0  0
    1.5562    0.4898    7.6336 H   0  0  0  0  0  0  0  0  0  0  0  0
   -0.5689    2.1116    7.6093 H   0  0  0  0  0  0  0  0  0  0  0  0
    0.5241    4.4725    4.5985 H   0  0  0  0  0  0  0  0  0  0  0  0
   -0.9011    4.5682    2.3333 H   0  0  0  0  0  0  0  0  0  0  0  0
   -2.7640    2.1841    2.9599 H   0  0  0  0  0  0  0  0  0  0  0  0
   -1.2667    1.7142    2.1356 H   0  0  0  0  0  0  0  0  0  0  0  0
   -2.7872    0.2060    3.9801 H   0  0  0  0  0  0  0  0  0  0  0  0
   -2.7727    3.1100    4.9302 H   0  0  0  0  0  0  0  0  0  0  0  0
   -0.9376    5.0004    5.9814 H   0  0  0  0  0  0  0  0  0  0  0  0
   -1.3394    4.6283    8.1045 H   0  0  0  0  0  0  0  0  0  0  0  0
    1.1894    4.0269    7.5785 H   0  0  0  0  0  0  0  0  0  0  0  0
    3.9495    3.8402    5.1259 H   0  0  0  0  0  0  0  0  0  0  0  0
    3.2197    1.4015    6.5471 H   0  0  0  0  0  0  0  0  0  0  0  0
    3.4552    1.4008    4.8536 H   0  0  0  0  0  0  0  0  0  0  0  0
    3.4957    3.7371    2.9702 H   0  0  0  0  0  0  0  0  0  0  0  0
    2.0615    3.9015    1.9771 H   0  0  0  0  0  0  0  0  0  0  0  0
    1.5017    5.6917    3.1417 H   0  0  0  0  0  0  0  0  0  0  0  0
    0.7252    1.9590    2.3080 H   0  0  0  0  0  0  0  0  0  0  0  0
    2.7376    0.2476    3.4669 H   0  0  0  0  0  0  0  0  0  0  0  0
  1  2  1  0
  1 27  1  0
  1 28  1  0
  1 29  1  0
  2  3  1  0
  2 30  1  0
  2 31  1  0
  3 26  1  0
  3  4  1  0
  3 54  1  1
  5  4  1  6
  4 32  1  0
  4 33  1  0
  5 14  1  0
  5 26  1  0
  5  6  1  0
  6 22  1  0
  6  7  1  0
  6 34  1  1
  7  8  1  0
  7 35  1  0
  7 36  1  0
  8 19  1  0
  8  9  1  0
  8 37  1  1
  9 10  1  0
 10 23  1  0
 10 11  1  0
 10 38  1  1
 11 16  1  0
 11 12  1  6
 11 13  1  0
 12 39  1  0
 13 14  1  0
 13 40  1  0
 13 41  1  0
 14 15  1  1
 14 16  1  0
 15 42  1  0
 16 17  1  0
 16 43  1  6
 17 18  1  0
 17 19  1  0
 17 44  1  6
 18 45  1  0
 19 20  1  0
 19 46  1  1
 20 21  1  6
 20 22  1  0
 20 23  1  0
 21 47  1  0
 22 48  1  0
 22 49  1  0
 23 24  1  6
 23 26  1  0
 24 25  1  0
 24 50  1  0
 24 51  1  0
 25 52  1  0
 26 53  1  6
M  CHG  1   3   1
M  END
>  <i_m_ct_stereo_status>  (348) 
1

>  <s_m_source_file>  (348) 
/var/tmp/pbs.5083858.sched01/tmpkw71y9o9/1459sfe72gm.sdf

>  <i_m_source_file_index>  (348) 
2

>  <i_lp_mmshare_version>  (348) 
48012

>  <i_f3d_flags>  (348) 
0

>  <s_epik_input>  (348) 
W0NIMl0xW0NAXTIoW09IXSlbQ0BASF0oW0NASF0zW09IXSlbQ0BAXTEoW09IXSlbQ0BASF0oTzQpW0NAXShbQ0gyXVtPSF0pKFtDQEhdNU4oW0NIMl02KVtDSDJdW0NIM10pW0NAXShbT0hdKShbQ0gyXTcpW0NAQEhdM1tDQEBIXTRbQ0gyXVtDQEhdN1tDQEBdMjU2

>  <s_epik_cmdline>  (348) 
J2VwaWtfcHl0aG9uJywgJy1waHQnLCAnMi4wJywgJy1waCcsICc3LjAnLCAnLXRuJywgJzgnLCAnLW1hJywgJzIwMCcsICctaW1hZScsICc8aW5maWxlLm1hZT4nLCAnLW9tYWUnLCAnPG91dGZpbGUubWFlPic=

>  <r_epik_Ionization_Penalty>  (348) 
0.000657235

>  <r_epik_Ionization_Penalty_Charging>  (348) 
0.000656898

>  <r_epik_Ionization_Penalty_Neutral>  (348) 
3.37066e-07

>  <r_epik_State_Penalty>  (348) 
0.000416263

>  <r_epik_Charging_Adjusted_Penalty>  (348) 
0.00107316

>  <i_epik_Tot_Q>  (348) 
1

>  <i_epik_Tot_abs_Q>  (348) 
1

>  <s_lp_Force_Field>  (348) 
OPLS3e

>  <r_lp_Energy>  (348) 
600.996

>  <b_lp_Chiralities_Consistent>  (348) 
1

>  <s_lp_Variant>  (348) 
102:0-1

>  <s_i_glide_gridfile>  (348) 
pfpi4k_grid

>  <i_i_glide_lignum>  (348) 
2

>  <i_i_glide_rotatable_bonds>  (348) 
7

>  <r_i_docking_score>  (348) 
-4.02634

>  <r_i_glide_ligand_efficiency>  (348) 
-0.154859

>  <r_i_glide_ligand_efficiency_sa>  (348) 
-0.45877

>  <r_i_glide_ligand_efficiency_ln>  (348) 
-0.945574

>  <r_i_glide_gscore>  (348) 
-4.02634

>  <r_i_glide_lipo>  (348) 
0

>  <r_i_glide_hbond>  (348) 
-0.234341

>  <r_i_glide_metal>  (348) 
-0

>  <r_i_glide_rewards>  (348) 
-0.910713

>  <r_i_glide_evdw>  (348) 
-16.2066

>  <r_i_glide_ecoul>  (348) 
-14.6749

>  <r_i_glide_erotb>  (348) 
0.143348

>  <r_i_glide_esite>  (348) 
-0.0130776

>  <r_i_glide_emodel>  (348) 
-38.386

>  <r_i_glide_energy>  (348) 
-30.8815

>  <r_i_glide_einternal>  (348) 
5.00692

>  <r_i_glide_intrahb_reward>  (348) 
-0

>  <i_i_glide_confnum>  (348) 
5

>  <i_i_glide_posenum>  (348) 
5

>  <r_i_glide_eff_state_penalty>  (348) 
0

>  <ligand_id>  (348) 
102

>  <original_smiles>  (348) 
CCN1CC23C4CC5OC6C7(O)CC2(O)C7C(O)C5C(O)(C4)C6(CO)C13

>  <smiles>  (348) 
[H]OC([H])([H])C12C3([H])OC4([H])C([H])([H])C5([H])C([H])([H])C1(O[H])C4([H])C([H])(O[H])C1([H])C3(O[H])C([H])([H])C1(O[H])C51C([H])([H])[N+]([H])(C([H])([H])C([H])([H])[H])C21[H]

$$$$
102:0:2
     RDKit          3D

 54 60  0  0  1  0  0  0  0  0999 V2000
    3.1270   -0.8721    0.9986 C   0  0  0  0  0  0  0  0  0  0  0  0
    2.4017    0.4265    1.4004 C   0  0  0  0  0  0  0  0  0  0  0  0
    1.9668    0.4417    2.8140 N   0  0  2  0  0  0  0  0  0  0  0  0
    0.7347   -0.3328    3.0497 C   0  0  0  0  0  0  0  0  0  0  0  0
    0.4118    0.6357    4.1914 C   0  0  2  0  0  0  0  0  0  0  0  0
    1.5037    0.4066    5.4776 C   0  0  2  0  0  0  0  0  0  0  0  0
    0.9398    0.6601    6.8970 C   0  0  0  0  0  0  0  0  0  0  0  0
    0.4845    2.1166    7.1518 C   0  0  2  0  0  0  0  0  0  0  0  0
    0.3255    2.2967    5.7755 O   0  0  0  0  0  0  0  0  0  0  0  0
    0.4737    3.3382    4.5262 C   0  0  2  0  0  0  0  0  0  0  0  0
   -0.9461    3.3055    3.8869 C   0  0  1  0  0  0  0  0  0  0  0  0
   -1.2965    4.5590    3.3374 O   0  0  0  0  0  0  0  0  0  0  0  0
   -1.6863    2.0976    3.2376 C   0  0  0  0  0  0  0  0  0  0  0  0
   -1.2380    1.3100    4.4465 C   0  0  1  0  0  0  0  0  0  0  0  0
   -2.1416    0.3141    4.8666 O   0  0  0  0  0  0  0  0  0  0  0  0
   -1.6350    2.9382    5.1899 C   0  0  1  0  0  0  0  0  0  0  0  0
   -0.8037    3.9446    6.4733 C   0  0  1  0  0  0  0  0  0  0  0  0
   -1.5919    4.1093    7.6409 O   0  0  0  0  0  0  0  0  0  0  0  0
    0.9623    3.4374    6.7981 C   0  0  2  0  0  0  0  0  0  0  0  0
    2.3093    3.0063    5.5897 C   0  0  1  0  0  0  0  0  0  0  0  0
    3.4442    3.8100    5.8197 O   0  0  0  0  0  0  0  0  0  0  0  0
    2.7436    1.4583    5.6207 C   0  0  0  0  0  0  0  0  0  0  0  0
    1.7845    2.9115    4.0148 C   0  0  2  0  0  0  0  0  0  0  0  0
    2.5029    3.8915    3.0330 C   0  0  0  0  0  0  0  0  0  0  0  0
    1.8387    5.1198    2.8144 O   0  0  0  0  0  0  0  0  0  0  0  0
    1.2124    1.6102    3.2842 C   0  0  1  0  0  0  0  0  0  0  0  0
    3.4774   -0.8194   -0.0399 H   0  0  0  0  0  0  0  0  0  0  0  0
    2.4754   -1.7481    1.0516 H   0  0  0  0  0  0  0  0  0  0  0  0
    4.0078   -1.0586    1.6168 H   0  0  0  0  0  0  0  0  0  0  0  0
    3.0864    1.2525    1.2379 H   0  0  0  0  0  0  0  0  0  0  0  0
    1.5635    0.5780    0.7138 H   0  0  0  0  0  0  0  0  0  0  0  0
   -0.0008   -0.3010    2.2471 H   0  0  0  0  0  0  0  0  0  0  0  0
    0.9053   -1.3543    3.3731 H   0  0  0  0  0  0  0  0  0  0  0  0
    1.8927   -0.6054    5.4665 H   0  0  0  0  0  0  0  0  0  0  0  0
    0.0890   -0.0041    7.0458 H   0  0  0  0  0  0  0  0  0  0  0  0
    1.6506    0.3772    7.6727 H   0  0  0  0  0  0  0  0  0  0  0  0
   -0.4303    2.0626    7.7376 H   0  0  0  0  0  0  0  0  0  0  0  0
    0.6462    4.4083    4.7315 H   0  0  0  0  0  0  0  0  0  0  0  0
   -0.9020    4.5864    2.4695 H   0  0  0  0  0  0  0  0  0  0  0  0
   -2.7739    2.2437    3.1594 H   0  0  0  0  0  0  0  0  0  0  0  0
   -1.3216    1.7436    2.2746 H   0  0  0  0  0  0  0  0  0  0  0  0
   -2.7726    0.2123    4.1646 H   0  0  0  0  0  0  0  0  0  0  0  0
   -2.7004    3.1551    5.1353 H   0  0  0  0  0  0  0  0  0  0  0  0
   -0.7797    4.9794    6.1411 H   0  0  0  0  0  0  0  0  0  0  0  0
   -1.6137    3.2947    8.1155 H   0  0  0  0  0  0  0  0  0  0  0  0
    1.3716    3.9323    7.6734 H   0  0  0  0  0  0  0  0  0  0  0  0
    3.2277    4.6978    5.5828 H   0  0  0  0  0  0  0  0  0  0  0  0
    3.3020    1.2652    6.5376 H   0  0  0  0  0  0  0  0  0  0  0  0
    3.4785    1.2771    4.8388 H   0  0  0  0  0  0  0  0  0  0  0  0
    3.5000    4.1444    3.3871 H   0  0  0  0  0  0  0  0  0  0  0  0
    2.6662    3.4277    2.0645 H   0  0  0  0  0  0  0  0  0  0  0  0
    1.1458    4.9660    2.1767 H   0  0  0  0  0  0  0  0  0  0  0  0
    0.6854    1.9304    2.3831 H   0  0  0  0  0  0  0  0  0  0  0  0
    2.6855    0.1546    3.4582 H   0  0  0  0  0  0  0  0  0  0  0  0
  1  2  1  0
  1 27  1  0
  1 28  1  0
  1 29  1  0
  2  3  1  0
  2 30  1  0
  2 31  1  0
  3 26  1  0
  3  4  1  0
  3 54  1  1
  5  4  1  6
  4 32  1  0
  4 33  1  0
  5 14  1  0
  5 26  1  0
  5  6  1  0
  6 22  1  0
  6  7  1  0
  6 34  1  1
  7  8  1  0
  7 35  1  0
  7 36  1  0
  8 19  1  0
  8  9  1  0
  8 37  1  1
  9 10  1  0
 10 23  1  0
 10 11  1  0
 10 38  1  1
 11 16  1  0
 11 12  1  6
 11 13  1  0
 12 39  1  0
 13 14  1  0
 13 40  1  0
 13 41  1  0
 14 15  1  1
 14 16  1  0
 15 42  1  0
 16 17  1  0
 16 43  1  6
 17 18  1  0
 17 19  1  0
 17 44  1  6
 18 45  1  0
 19 20  1  0
 19 46  1  1
 20 21  1  6
 20 22  1  0
 20 23  1  0
 21 47  1  0
 22 48  1  0
 22 49  1  0
 23 24  1  6
 23 26  1  0
 24 25  1  0
 24 50  1  0
 24 51  1  0
 25 52  1  0
 26 53  1  6
M  CHG  1   3   1
M  END
>  <i_m_ct_stereo_status>  (349) 
1

>  <s_m_source_file>  (349) 
/var/tmp/pbs.5083858.sched01/tmpkw71y9o9/1459sfe72gm.sdf

>  <i_m_source_file_index>  (349) 
2

>  <i_lp_mmshare_version>  (349) 
48012

>  <i_f3d_flags>  (349) 
0

>  <s_epik_input>  (349) 
W0NIMl0xW0NAXTIoW09IXSlbQ0BASF0oW0NASF0zW09IXSlbQ0BAXTEoW09IXSlbQ0BASF0oTzQpW0NAXShbQ0gyXVtPSF0pKFtDQEhdNU4oW0NIMl02KVtDSDJdW0NIM10pW0NAXShbT0hdKShbQ0gyXTcpW0NAQEhdM1tDQEBIXTRbQ0gyXVtDQEhdN1tDQEBdMjU2

>  <s_epik_cmdline>  (349) 
J2VwaWtfcHl0aG9uJywgJy1waHQnLCAnMi4wJywgJy1waCcsICc3LjAnLCAnLXRuJywgJzgnLCAnLW1hJywgJzIwMCcsICctaW1hZScsICc8aW5maWxlLm1hZT4nLCAnLW9tYWUnLCAnPG91dGZpbGUubWFlPic=

>  <r_epik_Ionization_Penalty>  (349) 
0.000657235

>  <r_epik_Ionization_Penalty_Charging>  (349) 
0.000656898

>  <r_epik_Ionization_Penalty_Neutral>  (349) 
3.37066e-07

>  <r_epik_State_Penalty>  (349) 
0.000416263

>  <r_epik_Charging_Adjusted_Penalty>  (349) 
0.00107316

>  <i_epik_Tot_Q>  (349) 
1

>  <i_epik_Tot_abs_Q>  (349) 
1

>  <s_lp_Force_Field>  (349) 
OPLS3e

>  <r_lp_Energy>  (349) 
600.996

>  <b_lp_Chiralities_Consistent>  (349) 
1

>  <s_lp_Variant>  (349) 
102:0-1

>  <s_i_glide_gridfile>  (349) 
pfpi4k_grid

>  <i_i_glide_lignum>  (349) 
2

>  <i_i_glide_rotatable_bonds>  (349) 
7

>  <r_i_docking_score>  (349) 
-3.93151

>  <r_i_glide_ligand_efficiency>  (349) 
-0.151212

>  <r_i_glide_ligand_efficiency_sa>  (349) 
-0.447965

>  <r_i_glide_ligand_efficiency_ln>  (349) 
-0.923303

>  <r_i_glide_gscore>  (349) 
-3.93151

>  <r_i_glide_lipo>  (349) 
0

>  <r_i_glide_hbond>  (349) 
0

>  <r_i_glide_metal>  (349) 
-0

>  <r_i_glide_rewards>  (349) 
-0.910713

>  <r_i_glide_evdw>  (349) 
-17.0036

>  <r_i_glide_ecoul>  (349) 
-15.3321

>  <r_i_glide_erotb>  (349) 
0.143348

>  <r_i_glide_esite>  (349) 
-0.0141497

>  <r_i_glide_emodel>  (349) 
-38.168

>  <r_i_glide_energy>  (349) 
-32.3357

>  <r_i_glide_einternal>  (349) 
7.96379

>  <r_i_glide_intrahb_reward>  (349) 
-0

>  <i_i_glide_confnum>  (349) 
2

>  <i_i_glide_posenum>  (349) 
33

>  <r_i_glide_eff_state_penalty>  (349) 
0

>  <ligand_id>  (349) 
102

>  <original_smiles>  (349) 
CCN1CC23C4CC5OC6C7(O)CC2(O)C7C(O)C5C(O)(C4)C6(CO)C13

>  <smiles>  (349) 
[H]OC([H])([H])C12C3([H])OC4([H])C([H])([H])C5([H])C([H])([H])C1(O[H])C4([H])C([H])(O[H])C1([H])C3(O[H])C([H])([H])C1(O[H])C51C([H])([H])[N+]([H])(C([H])([H])C([H])([H])[H])C21[H]

$$$$
104:0:0
     RDKit          3D

 79 84  0  0  1  0  0  0  0  0999 V2000
    3.0383   -1.8999   -2.9810 C   0  0  0  0  0  0  0  0  0  0  0  0
    3.3748   -3.0036   -1.9638 C   0  0  2  0  0  0  0  0  0  0  0  0
    3.1002   -2.5957   -0.6189 O   0  0  0  0  0  0  0  0  0  0  0  0
    3.8538   -1.5194   -0.1197 C   0  0  1  0  0  0  0  0  0  0  0  0
    3.4855   -1.1994    1.1900 O   0  0  0  0  0  0  0  0  0  0  0  0
    3.7583    0.1419    1.5605 C   0  0  0  0  0  0  0  0  0  0  0  0
    3.5523    0.2952    3.0587 C   0  0  0  0  0  0  0  0  0  0  0  0
    2.3900    0.7855    3.4978 C   0  0  0  0  0  0  0  0  0  0  0  0
    1.8021    1.0816    4.8817 C   0  0  2  0  0  0  0  0  0  0  0  0
    2.1264    2.5355    5.2678 C   0  0  0  0  0  0  0  0  0  0  0  0
    2.8887    3.2636    4.6531 O   0  0  0  0  0  0  0  0  0  0  0  0
    1.4389    2.8996    6.3992 O   0  0  0  0  0  0  0  0  0  0  0  0
    0.5820    1.9278    7.0199 C   0  0  2  0  0  0  0  0  0  0  0  0
    1.5521    0.7787    7.4013 C   0  0  1  0  0  0  0  0  0  0  0  0
    0.9075   -0.2448    8.1292 O   0  0  0  0  0  0  0  0  0  0  0  0
    2.2427    0.1847    6.1162 C   0  0  2  0  0  0  0  0  0  0  0  0
    3.7699   -0.1503    6.3744 C   0  0  0  0  0  0  0  0  0  0  0  0
    4.6460    1.0784    6.7515 C   0  0  0  0  0  0  0  0  0  0  0  0
    3.8686   -1.1114    7.5918 C   0  0  0  0  0  0  0  0  0  0  0  0
    4.4438   -0.9026    5.1859 C   0  0  1  0  0  0  0  0  0  0  0  0
    3.7138   -2.0669    4.8251 O   0  0  0  0  0  0  0  0  0  0  0  0
    4.7603   -0.0781    3.9271 C   0  0  1  0  0  0  0  0  0  0  0  0
    5.7432   -0.7896    3.1934 O   0  0  0  0  0  0  0  0  0  0  0  0
   -0.4918    1.3822    6.0301 C   0  0  1  0  0  0  0  0  0  0  0  0
   -1.4376    0.6805    6.9000 O   0  0  0  0  0  0  0  0  0  0  0  0
   -2.2418    1.9406    6.8351 C   0  0  0  0  0  0  0  0  0  0  0  0
   -1.7315    2.0236    5.4315 C   0  0  1  0  0  0  0  0  0  0  0  0
   -1.2308    3.0107    4.4220 C   0  0  0  0  0  0  0  0  0  0  0  0
   -2.2318    3.2591    3.2807 C   0  0  0  0  0  0  0  0  0  0  0  0
   -0.7090    4.3463    4.9893 C   0  0  0  0  0  0  0  0  0  0  0  0
   -0.1958    2.1357    3.8829 O   0  0  0  0  0  0  0  0  0  0  0  0
    0.2248    1.0159    4.7424 C   0  0  1  0  0  0  0  0  0  0  0  0
   -0.2942   -0.3143    4.1253 C   0  0  0  0  0  0  0  0  0  0  0  0
    5.3555   -1.8756   -0.1355 C   0  0  1  0  0  0  0  0  0  0  0  0
    5.6169   -2.8724    0.8284 O   0  0  0  0  0  0  0  0  0  0  0  0
    5.7614   -2.3741   -1.5390 C   0  0  1  0  0  0  0  0  0  0  0  0
    7.1421   -2.7028   -1.6300 O   0  0  0  0  0  0  0  0  0  0  0  0
    4.8288   -3.4852   -2.0573 C   0  0  1  0  0  0  0  0  0  0  0  0
    4.9454   -4.6705   -1.2922 O   0  0  0  0  0  0  0  0  0  0  0  0
    3.1382   -2.2368   -4.0163 H   0  0  0  0  0  0  0  0  0  0  0  0
    3.6274   -0.9888   -2.8740 H   0  0  0  0  0  0  0  0  0  0  0  0
    2.0062   -1.6149   -2.8139 H   0  0  0  0  0  0  0  0  0  0  0  0
    2.7043   -3.8359   -2.1654 H   0  0  0  0  0  0  0  0  0  0  0  0
    3.6087   -0.6594   -0.7435 H   0  0  0  0  0  0  0  0  0  0  0  0
    4.7659    0.4547    1.2824 H   0  0  0  0  0  0  0  0  0  0  0  0
    3.0975    0.8114    1.0150 H   0  0  0  0  0  0  0  0  0  0  0  0
    1.6925    1.0525    2.7076 H   0  0  0  0  0  0  0  0  0  0  0  0
    0.1435    2.3653    7.9130 H   0  0  0  0  0  0  0  0  0  0  0  0
    2.2771    1.2227    8.0798 H   0  0  0  0  0  0  0  0  0  0  0  0
    0.3318   -0.7129    7.5387 H   0  0  0  0  0  0  0  0  0  0  0  0
    1.7723   -0.7811    5.9279 H   0  0  0  0  0  0  0  0  0  0  0  0
    5.6862    0.7823    6.8945 H   0  0  0  0  0  0  0  0  0  0  0  0
    4.3390    1.5481    7.6840 H   0  0  0  0  0  0  0  0  0  0  0  0
    4.6502    1.8578    5.9935 H   0  0  0  0  0  0  0  0  0  0  0  0
    4.8848   -1.4763    7.7417 H   0  0  0  0  0  0  0  0  0  0  0  0
    3.2271   -1.9840    7.4683 H   0  0  0  0  0  0  0  0  0  0  0  0
    3.5811   -0.6287    8.5247 H   0  0  0  0  0  0  0  0  0  0  0  0
    5.4077   -1.2612    5.5522 H   0  0  0  0  0  0  0  0  0  0  0  0
    2.9211   -1.7934    4.3825 H   0  0  0  0  0  0  0  0  0  0  0  0
    5.2610    0.8532    4.1750 H   0  0  0  0  0  0  0  0  0  0  0  0
    5.3751   -1.6257    2.9215 H   0  0  0  0  0  0  0  0  0  0  0  0
   -3.3101    1.7537    6.8893 H   0  0  0  0  0  0  0  0  0  0  0  0
   -1.9210    2.7157    7.5319 H   0  0  0  0  0  0  0  0  0  0  0  0
   -2.3403    1.2986    4.8996 H   0  0  0  0  0  0  0  0  0  0  0  0
   -3.1274    3.7589    3.6437 H   0  0  0  0  0  0  0  0  0  0  0  0
   -2.5507    2.3270    2.8198 H   0  0  0  0  0  0  0  0  0  0  0  0
   -1.7857    3.8740    2.4992 H   0  0  0  0  0  0  0  0  0  0  0  0
   -1.4416    5.1387    4.8638 H   0  0  0  0  0  0  0  0  0  0  0  0
    0.1927    4.6689    4.4695 H   0  0  0  0  0  0  0  0  0  0  0  0
   -0.5073    4.3102    6.0577 H   0  0  0  0  0  0  0  0  0  0  0  0
   -0.0544   -1.1776    4.7513 H   0  0  0  0  0  0  0  0  0  0  0  0
    0.1290   -0.4973    3.1364 H   0  0  0  0  0  0  0  0  0  0  0  0
   -1.3746   -0.3200    3.9882 H   0  0  0  0  0  0  0  0  0  0  0  0
    5.9365   -0.9867    0.1047 H   0  0  0  0  0  0  0  0  0  0  0  0
    5.1683   -3.6532    0.5239 H   0  0  0  0  0  0  0  0  0  0  0  0
    5.6660   -1.5424   -2.2293 H   0  0  0  0  0  0  0  0  0  0  0  0
    7.2914   -3.2119   -2.4197 H   0  0  0  0  0  0  0  0  0  0  0  0
    5.0634   -3.7433   -3.0954 H   0  0  0  0  0  0  0  0  0  0  0  0
    4.3671   -5.3262   -1.6727 H   0  0  0  0  0  0  0  0  0  0  0  0
  1  2  1  0
  1 40  1  0
  1 41  1  0
  1 42  1  0
  2 38  1  0
  2  3  1  0
  2 43  1  6
  3  4  1  0
  4  5  1  0
  4 34  1  0
  4 44  1  6
  5  6  1  0
  6  7  1  0
  6 45  1  0
  6 46  1  0
  7 22  1  0
  7  8  2  0
  9  8  1  6
  8 47  1  0
  9 16  1  0
  9 32  1  0
  9 10  1  0
 10 11  2  0
 10 12  1  0
 12 13  1  0
 13 14  1  0
 13 24  1  0
 13 48  1  1
 14 15  1  0
 14 16  1  0
 14 49  1  1
 15 50  1  0
 16 17  1  0
 16 51  1  6
 17 18  1  0
 17 19  1  0
 17 20  1  0
 18 52  1  0
 18 53  1  0
 18 54  1  0
 19 55  1  0
 19 56  1  0
 19 57  1  0
 20 21  1  0
 20 22  1  0
 20 58  1  1
 21 59  1  0
 22 23  1  0
 22 60  1  1
 23 61  1  0
 24 27  1  0
 24 32  1  0
 24 25  1  1
 25 26  1  0
 26 27  1  0
 26 62  1  0
 26 63  1  0
 27 28  1  0
 27 64  1  6
 28 29  1  0
 28 30  1  0
 28 31  1  0
 29 65  1  0
 29 66  1  0
 29 67  1  0
 30 68  1  0
 30 69  1  0
 30 70  1  0
 31 32  1  0
 32 33  1  6
 33 71  1  0
 33 72  1  0
 33 73  1  0
 34 35  1  0
 34 36  1  0
 34 74  1  1
 35 75  1  0
 36 37  1  0
 36 38  1  0
 36 76  1  6
 37 77  1  0
 38 39  1  0
 38 78  1  6
 39 79  1  0
M  END
>  <i_m_ct_stereo_status>  (350) 
1

>  <s_m_source_file>  (350) 
/var/tmp/pbs.5083858.sched01/tmpkw71y9o9/1459sfe72gm.sdf

>  <i_m_source_file_index>  (350) 
4

>  <i_lp_mmshare_version>  (350) 
48012

>  <i_f3d_flags>  (350) 
0

>  <s_epik_input>  (350) 
W09IXVtDQEBIXTFbQ0BIXShbT0hdKVtDQEhdKFtPSF0pW0NAQEhdKE9bQ0BIXTFbQ0gzXSlPW0NIMl1DKD1bQ0hdMilbQ0BIXShbT0hdKVtDQEhdKFtPSF0pQyhbQ0gzXSkoW0NIM10pW0NASF0oW0NAXTIzNClbQ0BIXShbT0hdKVtDQEBIXShPQzM9TylbQ0BdNTZbQ0BASF0oW0NIMl1PNSlDKFtDSDNdKShbQ0gzXSlPW0NAQF00NltDSDNd

>  <s_epik_cmdline>  (350) 
J2VwaWtfcHl0aG9uJywgJy1waHQnLCAnMi4wJywgJy1waCcsICc3LjAnLCAnLXRuJywgJzgnLCAnLW1hJywgJzIwMCcsICctaW1hZScsICc8aW5maWxlLm1hZT4nLCAnLW9tYWUnLCAnPG91dGZpbGUubWFlPic=

>  <r_lp_tautomer_probability>  (350) 
1

>  <r_epik_Ionization_Penalty>  (350) 
8.38734e-06

>  <r_epik_Ionization_Penalty_Charging>  (350) 
0

>  <r_epik_Ionization_Penalty_Neutral>  (350) 
8.38734e-06

>  <r_epik_State_Penalty>  (350) 
-0

>  <r_epik_Charging_Adjusted_Penalty>  (350) 
0

>  <i_epik_Tot_Q>  (350) 
0

>  <i_epik_Tot_abs_Q>  (350) 
0

>  <s_epik_Chemistry_Notes>  (350) 
This compound has an ester and may undergo hydrolysis at high or low pH. This compound contains an acetal/aminal-like group ( X-CH(R)-Y where X, Y are N, S, or O) that may be acid/base labile, releasing an aldehyde.

>  <s_lp_Force_Field>  (350) 
OPLS3e

>  <r_lp_Energy>  (350) 
108.666

>  <b_lp_Chiralities_Consistent>  (350) 
1

>  <s_lp_Variant>  (350) 
104:0-1

>  <s_i_glide_gridfile>  (350) 
pfpi4k_grid

>  <i_i_glide_lignum>  (350) 
4

>  <i_i_glide_rotatable_bonds>  (350) 
9

>  <r_i_docking_score>  (350) 
-4.04312

>  <r_i_glide_ligand_efficiency>  (350) 
-0.10367

>  <r_i_glide_ligand_efficiency_sa>  (350) 
-0.351566

>  <r_i_glide_ligand_efficiency_ln>  (350) 
-0.866959

>  <r_i_glide_gscore>  (350) 
-4.04312

>  <r_i_glide_lipo>  (350) 
-0.15915

>  <r_i_glide_hbond>  (350) 
-0.16

>  <r_i_glide_metal>  (350) 
-0

>  <r_i_glide_rewards>  (350) 
-1

>  <r_i_glide_evdw>  (350) 
-35.7692

>  <r_i_glide_ecoul>  (350) 
-6.69973

>  <r_i_glide_erotb>  (350) 
0.125228

>  <r_i_glide_esite>  (350) 
-0.0557738

>  <r_i_glide_emodel>  (350) 
-61.787

>  <r_i_glide_energy>  (350) 
-42.469

>  <r_i_glide_einternal>  (350) 
5.24357

>  <r_i_glide_intrahb_reward>  (350) 
-1

>  <i_i_glide_confnum>  (350) 
4

>  <i_i_glide_posenum>  (350) 
17

>  <r_i_glide_eff_state_penalty>  (350) 
0

>  <ligand_id>  (350) 
104

>  <original_smiles>  (350) 
CC1OC(OCC2=CC34C(=O)OC(C(O)C3C(C)(C)C(O)C2O)C23OCC2C(C)(C)OC43C)C(O)C(O)C1O

>  <smiles>  (350) 
[H]OC1([H])C(C([H])([H])OC2([H])OC([H])(C([H])([H])[H])C([H])(O[H])C([H])(O[H])C2([H])O[H])=C([H])C23C(=O)OC([H])(C([H])(O[H])C2([H])C(C([H])([H])[H])(C([H])([H])[H])C1([H])O[H])C12OC([H])([H])C1([H])C(C([H])([H])[H])(C([H])([H])[H])OC32C([H])([H])[H]

$$$$
104:0:1
     RDKit          3D

 79 84  0  0  1  0  0  0  0  0999 V2000
    3.0827   -3.6616   -0.4928 C   0  0  0  0  0  0  0  0  0  0  0  0
    4.2807   -2.8961   -1.1107 C   0  0  2  0  0  0  0  0  0  0  0  0
    5.5197   -3.4853   -0.6946 O   0  0  0  0  0  0  0  0  0  0  0  0
    5.8625   -3.4250    0.6593 C   0  0  1  0  0  0  0  0  0  0  0  0
    7.0793   -4.0356    0.9263 O   0  0  0  0  0  0  0  0  0  0  0  0
    7.0480   -5.4511    0.7623 C   0  0  0  0  0  0  0  0  0  0  0  0
    6.7126   -6.1984    2.0557 C   0  0  0  0  0  0  0  0  0  0  0  0
    5.4751   -6.6883    2.2218 C   0  0  0  0  0  0  0  0  0  0  0  0
    4.7407   -7.4417    3.3341 C   0  0  2  0  0  0  0  0  0  0  0  0
    4.0564   -6.4067    4.2830 C   0  0  0  0  0  0  0  0  0  0  0  0
    4.2397   -5.2114    4.2059 O   0  0  0  0  0  0  0  0  0  0  0  0
    3.2294   -7.0413    5.1566 O   0  0  0  0  0  0  0  0  0  0  0  0
    3.1107   -8.4674    5.0969 C   0  0  2  0  0  0  0  0  0  0  0  0
    4.5587   -8.9555    5.3753 C   0  0  1  0  0  0  0  0  0  0  0  0
    4.6341  -10.3657    5.4884 O   0  0  0  0  0  0  0  0  0  0  0  0
    5.5545   -8.4223    4.2780 C   0  0  2  0  0  0  0  0  0  0  0  0
    6.9428   -7.9755    4.9071 C   0  0  0  0  0  0  0  0  0  0  0  0
    6.8422   -6.8232    5.9444 C   0  0  0  0  0  0  0  0  0  0  0  0
    7.5372   -9.1817    5.6855 C   0  0  0  0  0  0  0  0  0  0  0  0
    8.0158   -7.5950    3.8437 C   0  0  1  0  0  0  0  0  0  0  0  0
    8.1840   -8.6367    2.9096 O   0  0  0  0  0  0  0  0  0  0  0  0
    7.8455   -6.2547    3.0947 C   0  0  1  0  0  0  0  0  0  0  0  0
    9.1100   -5.9140    2.5380 O   0  0  0  0  0  0  0  0  0  0  0  0
    2.6635   -8.9577    3.6801 C   0  0  1  0  0  0  0  0  0  0  0  0
    2.2987  -10.3354    3.9067 O   0  0  0  0  0  0  0  0  0  0  0  0
    0.9132   -9.8658    3.9861 C   0  0  0  0  0  0  0  0  0  0  0  0
    1.3353   -8.8632    2.9512 C   0  0  1  0  0  0  0  0  0  0  0  0
    1.1828   -7.4352    2.5659 C   0  0  0  0  0  0  0  0  0  0  0  0
    0.3130   -7.2334    1.3170 C   0  0  0  0  0  0  0  0  0  0  0  0
    0.7139   -6.4782    3.6890 C   0  0  0  0  0  0  0  0  0  0  0  0
    2.5686   -7.2456    2.1491 O   0  0  0  0  0  0  0  0  0  0  0  0
    3.5414   -8.2308    2.6662 C   0  0  1  0  0  0  0  0  0  0  0  0
    3.9958   -9.1546    1.4940 C   0  0  0  0  0  0  0  0  0  0  0  0
    5.9185   -1.9501    1.1316 C   0  0  1  0  0  0  0  0  0  0  0  0
    7.0559   -1.2530    0.6396 O   0  0  0  0  0  0  0  0  0  0  0  0
    4.6158   -1.2184    0.7148 C   0  0  1  0  0  0  0  0  0  0  0  0
    4.6227    0.1449    1.0646 O   0  0  0  0  0  0  0  0  0  0  0  0
    4.2549   -1.3921   -0.7752 C   0  0  1  0  0  0  0  0  0  0  0  0
    5.1111   -0.6547   -1.6515 O   0  0  0  0  0  0  0  0  0  0  0  0
    2.1349   -3.2757   -0.8671 H   0  0  0  0  0  0  0  0  0  0  0  0
    3.0285   -3.6013    0.5922 H   0  0  0  0  0  0  0  0  0  0  0  0
    3.1520   -4.7199   -0.7245 H   0  0  0  0  0  0  0  0  0  0  0  0
    4.2271   -2.9919   -2.1923 H   0  0  0  0  0  0  0  0  0  0  0  0
    5.1308   -3.9678    1.2547 H   0  0  0  0  0  0  0  0  0  0  0  0
    6.3320   -5.7303   -0.0137 H   0  0  0  0  0  0  0  0  0  0  0  0
    8.0059   -5.7781    0.3672 H   0  0  0  0  0  0  0  0  0  0  0  0
    4.7967   -6.4884    1.3947 H   0  0  0  0  0  0  0  0  0  0  0  0
    2.4387   -8.8090    5.8819 H   0  0  0  0  0  0  0  0  0  0  0  0
    4.8119   -8.5798    6.3610 H   0  0  0  0  0  0  0  0  0  0  0  0
    3.9320  -10.6742    6.0284 H   0  0  0  0  0  0  0  0  0  0  0  0
    5.7911   -9.2709    3.6330 H   0  0  0  0  0  0  0  0  0  0  0  0
    7.8314   -6.5559    6.3191 H   0  0  0  0  0  0  0  0  0  0  0  0
    6.2526   -7.0898    6.8207 H   0  0  0  0  0  0  0  0  0  0  0  0
    6.4101   -5.9115    5.5376 H   0  0  0  0  0  0  0  0  0  0  0  0
    8.5505   -8.9832    6.0343 H   0  0  0  0  0  0  0  0  0  0  0  0
    7.5774  -10.0774    5.0641 H   0  0  0  0  0  0  0  0  0  0  0  0
    6.9532   -9.4323    6.5710 H   0  0  0  0  0  0  0  0  0  0  0  0
    8.9678   -7.5118    4.3736 H   0  0  0  0  0  0  0  0  0  0  0  0
    8.9202   -8.4365    2.3573 H   0  0  0  0  0  0  0  0  0  0  0  0
    7.6338   -5.4544    3.7903 H   0  0  0  0  0  0  0  0  0  0  0  0
    9.5246   -6.6640    2.1393 H   0  0  0  0  0  0  0  0  0  0  0  0
    0.1903  -10.5940    3.6046 H   0  0  0  0  0  0  0  0  0  0  0  0
    0.6097   -9.4715    4.9655 H   0  0  0  0  0  0  0  0  0  0  0  0
    1.3368   -9.4621    2.0339 H   0  0  0  0  0  0  0  0  0  0  0  0
   -0.7237   -7.5088    1.5080 H   0  0  0  0  0  0  0  0  0  0  0  0
    0.6715   -7.8535    0.4974 H   0  0  0  0  0  0  0  0  0  0  0  0
    0.3446   -6.2038    0.9772 H   0  0  0  0  0  0  0  0  0  0  0  0
   -0.3495   -6.2575    3.6051 H   0  0  0  0  0  0  0  0  0  0  0  0
    1.2540   -5.5314    3.6461 H   0  0  0  0  0  0  0  0  0  0  0  0
    0.8427   -6.9024    4.6829 H   0  0  0  0  0  0  0  0  0  0  0  0
    4.6757   -9.9384    1.8391 H   0  0  0  0  0  0  0  0  0  0  0  0
    4.5052   -8.6045    0.7034 H   0  0  0  0  0  0  0  0  0  0  0  0
    3.1655   -9.6699    1.0112 H   0  0  0  0  0  0  0  0  0  0  0  0
    5.9871   -1.9780    2.2162 H   0  0  0  0  0  0  0  0  0  0  0  0
    7.1068   -0.4256    1.0821 H   0  0  0  0  0  0  0  0  0  0  0  0
    3.7968   -1.6323    1.3026 H   0  0  0  0  0  0  0  0  0  0  0  0
    5.0412    0.6328    0.3733 H   0  0  0  0  0  0  0  0  0  0  0  0
    3.2546   -0.9963   -0.9681 H   0  0  0  0  0  0  0  0  0  0  0  0
    5.0711    0.2633   -1.4418 H   0  0  0  0  0  0  0  0  0  0  0  0
  1  2  1  0
  1 40  1  0
  1 41  1  0
  1 42  1  0
  2 38  1  0
  2  3  1  0
  2 43  1  6
  3  4  1  0
  4  5  1  0
  4 34  1  0
  4 44  1  1
  5  6  1  0
  6  7  1  0
  6 45  1  0
  6 46  1  0
  7 22  1  0
  7  8  2  0
  9  8  1  6
  8 47  1  0
  9 16  1  0
  9 32  1  0
  9 10  1  0
 10 11  2  0
 10 12  1  0
 12 13  1  0
 13 14  1  0
 13 24  1  0
 13 48  1  1
 14 15  1  0
 14 16  1  0
 14 49  1  1
 15 50  1  0
 16 17  1  0
 16 51  1  6
 17 18  1  0
 17 19  1  0
 17 20  1  0
 18 52  1  0
 18 53  1  0
 18 54  1  0
 19 55  1  0
 19 56  1  0
 19 57  1  0
 20 21  1  0
 20 22  1  0
 20 58  1  1
 21 59  1  0
 22 23  1  0
 22 60  1  1
 23 61  1  0
 24 27  1  0
 24 32  1  0
 24 25  1  1
 25 26  1  0
 26 27  1  0
 26 62  1  0
 26 63  1  0
 27 28  1  0
 27 64  1  6
 28 29  1  0
 28 30  1  0
 28 31  1  0
 29 65  1  0
 29 66  1  0
 29 67  1  0
 30 68  1  0
 30 69  1  0
 30 70  1  0
 31 32  1  0
 32 33  1  6
 33 71  1  0
 33 72  1  0
 33 73  1  0
 34 35  1  0
 34 36  1  0
 34 74  1  1
 35 75  1  0
 36 37  1  0
 36 38  1  0
 36 76  1  1
 37 77  1  0
 38 39  1  0
 38 78  1  1
 39 79  1  0
M  END
>  <i_m_ct_stereo_status>  (351) 
1

>  <s_m_source_file>  (351) 
/var/tmp/pbs.5083858.sched01/tmpkw71y9o9/1459sfe72gm.sdf

>  <i_m_source_file_index>  (351) 
4

>  <i_lp_mmshare_version>  (351) 
48012

>  <i_f3d_flags>  (351) 
0

>  <s_epik_input>  (351) 
W09IXVtDQEBIXTFbQ0BIXShbT0hdKVtDQEhdKFtPSF0pW0NAQEhdKE9bQ0BIXTFbQ0gzXSlPW0NIMl1DKD1bQ0hdMilbQ0BIXShbT0hdKVtDQEhdKFtPSF0pQyhbQ0gzXSkoW0NIM10pW0NASF0oW0NAXTIzNClbQ0BIXShbT0hdKVtDQEBIXShPQzM9TylbQ0BdNTZbQ0BASF0oW0NIMl1PNSlDKFtDSDNdKShbQ0gzXSlPW0NAQF00NltDSDNd

>  <s_epik_cmdline>  (351) 
J2VwaWtfcHl0aG9uJywgJy1waHQnLCAnMi4wJywgJy1waCcsICc3LjAnLCAnLXRuJywgJzgnLCAnLW1hJywgJzIwMCcsICctaW1hZScsICc8aW5maWxlLm1hZT4nLCAnLW9tYWUnLCAnPG91dGZpbGUubWFlPic=

>  <r_lp_tautomer_probability>  (351) 
1

>  <r_epik_Ionization_Penalty>  (351) 
8.38734e-06

>  <r_epik_Ionization_Penalty_Charging>  (351) 
0

>  <r_epik_Ionization_Penalty_Neutral>  (351) 
8.38734e-06

>  <r_epik_State_Penalty>  (351) 
-0

>  <r_epik_Charging_Adjusted_Penalty>  (351) 
0

>  <i_epik_Tot_Q>  (351) 
0

>  <i_epik_Tot_abs_Q>  (351) 
0

>  <s_epik_Chemistry_Notes>  (351) 
This compound has an ester and may undergo hydrolysis at high or low pH. This compound contains an acetal/aminal-like group ( X-CH(R)-Y where X, Y are N, S, or O) that may be acid/base labile, releasing an aldehyde.

>  <s_lp_Force_Field>  (351) 
OPLS3e

>  <r_lp_Energy>  (351) 
108.666

>  <b_lp_Chiralities_Consistent>  (351) 
1

>  <s_lp_Variant>  (351) 
104:0-1

>  <s_i_glide_gridfile>  (351) 
pfpi4k_grid

>  <i_i_glide_lignum>  (351) 
4

>  <i_i_glide_rotatable_bonds>  (351) 
9

>  <r_i_docking_score>  (351) 
-3.75813

>  <r_i_glide_ligand_efficiency>  (351) 
-0.0963622

>  <r_i_glide_ligand_efficiency_sa>  (351) 
-0.326785

>  <r_i_glide_ligand_efficiency_ln>  (351) 
-0.805849

>  <r_i_glide_gscore>  (351) 
-3.75813

>  <r_i_glide_lipo>  (351) 
-0.311378

>  <r_i_glide_hbond>  (351) 
0

>  <r_i_glide_metal>  (351) 
-0

>  <r_i_glide_rewards>  (351) 
-0.0923788

>  <r_i_glide_evdw>  (351) 
-33.7997

>  <r_i_glide_ecoul>  (351) 
-11.9308

>  <r_i_glide_erotb>  (351) 
0.125228

>  <r_i_glide_esite>  (351) 
0

>  <r_i_glide_emodel>  (351) 
-54.5067

>  <r_i_glide_energy>  (351) 
-45.7304

>  <r_i_glide_einternal>  (351) 
4.16061

>  <r_i_glide_intrahb_reward>  (351) 
-0

>  <i_i_glide_confnum>  (351) 
1

>  <i_i_glide_posenum>  (351) 
26

>  <r_i_glide_eff_state_penalty>  (351) 
0

>  <ligand_id>  (351) 
104

>  <original_smiles>  (351) 
CC1OC(OCC2=CC34C(=O)OC(C(O)C3C(C)(C)C(O)C2O)C23OCC2C(C)(C)OC43C)C(O)C(O)C1O

>  <smiles>  (351) 
[H]OC1([H])C(C([H])([H])OC2([H])OC([H])(C([H])([H])[H])C([H])(O[H])C([H])(O[H])C2([H])O[H])=C([H])C23C(=O)OC([H])(C([H])(O[H])C2([H])C(C([H])([H])[H])(C([H])([H])[H])C1([H])O[H])C12OC([H])([H])C1([H])C(C([H])([H])[H])(C([H])([H])[H])OC32C([H])([H])[H]

$$$$
104:0:2
     RDKit          3D

 79 84  0  0  1  0  0  0  0  0999 V2000
    2.8816   -3.6083   -0.5466 C   0  0  0  0  0  0  0  0  0  0  0  0
    4.1094   -2.8660   -1.1556 C   0  0  2  0  0  0  0  0  0  0  0  0
    5.3340   -3.4993   -0.7562 O   0  0  0  0  0  0  0  0  0  0  0  0
    5.7144   -3.4428    0.5906 C   0  0  1  0  0  0  0  0  0  0  0  0
    6.9226   -4.0882    0.8327 O   0  0  0  0  0  0  0  0  0  0  0  0
    6.8243   -5.5054    0.6952 C   0  0  0  0  0  0  0  0  0  0  0  0
    6.4765   -6.2189    2.0093 C   0  0  0  0  0  0  0  0  0  0  0  0
    5.2373   -6.6972    2.1819 C   0  0  0  0  0  0  0  0  0  0  0  0
    4.5070   -7.4233    3.3110 C   0  0  2  0  0  0  0  0  0  0  0  0
    3.8347   -6.3730    4.2361 C   0  0  0  0  0  0  0  0  0  0  0  0
    4.0326   -5.1625    4.1261 O   0  0  0  0  0  0  0  0  0  0  0  0
    2.9951   -6.9549    5.1347 O   0  0  0  0  0  0  0  0  0  0  0  0
    2.8655   -8.3840    5.1059 C   0  0  2  0  0  0  0  0  0  0  0  0
    4.3045   -8.8788    5.3962 C   0  0  1  0  0  0  0  0  0  0  0  0
    4.3797  -10.2894    5.5329 O   0  0  0  0  0  0  0  0  0  0  0  0
    5.3041   -8.3852    4.2791 C   0  0  2  0  0  0  0  0  0  0  0  0
    6.6972   -7.9347    4.8941 C   0  0  0  0  0  0  0  0  0  0  0  0
    6.6150   -6.7587    5.9025 C   0  0  0  0  0  0  0  0  0  0  0  0
    7.2864   -9.1260    5.6949 C   0  0  0  0  0  0  0  0  0  0  0  0
    7.7652   -7.5921    3.8145 C   0  0  1  0  0  0  0  0  0  0  0  0
    7.8985   -8.6487    2.8841 O   0  0  0  0  0  0  0  0  0  0  0  0
    7.6115   -6.2669    3.0386 C   0  0  1  0  0  0  0  0  0  0  0  0
    8.8801   -5.9860    2.4693 O   0  0  0  0  0  0  0  0  0  0  0  0
    2.4144   -8.9045    3.7025 C   0  0  1  0  0  0  0  0  0  0  0  0
    2.0422  -10.2669    3.9542 O   0  0  0  0  0  0  0  0  0  0  0  0
    0.6651   -9.7810    4.0313 C   0  0  0  0  0  0  0  0  0  0  0  0
    1.0772   -8.8125    2.9691 C   0  0  1  0  0  0  0  0  0  0  0  0
    0.9447   -7.3948    2.5592 C   0  0  0  0  0  0  0  0  0  0  0  0
    0.0750   -7.2111    1.3073 C   0  0  0  0  0  0  0  0  0  0  0  0
    0.4873   -6.4076    3.6593 C   0  0  0  0  0  0  0  0  0  0  0  0
    2.3307   -7.2235    2.1334 O   0  0  0  0  0  0  0  0  0  0  0  0
    3.2966   -8.2059    2.6646 C   0  0  1  0  0  0  0  0  0  0  0  0
    3.7366   -9.1615    1.5220 C   0  0  0  0  0  0  0  0  0  0  0  0
    5.8114   -1.9683    1.0755 C   0  0  1  0  0  0  0  0  0  0  0  0
    6.9710   -1.2987    0.6010 O   0  0  0  0  0  0  0  0  0  0  0  0
    4.5232   -1.2179    0.6719 C   0  0  1  0  0  0  0  0  0  0  0  0
    4.5628    0.1400    1.0422 O   0  0  0  0  0  0  0  0  0  0  0  0
    4.1299   -1.3666   -0.8107 C   0  0  1  0  0  0  0  0  0  0  0  0
    4.9855   -0.6591   -1.7137 O   0  0  0  0  0  0  0  0  0  0  0  0
    1.9437   -3.1975   -0.9304 H   0  0  0  0  0  0  0  0  0  0  0  0
    2.8082   -3.5523    0.5405 H   0  0  0  0  0  0  0  0  0  0  0  0
    2.9324   -4.6659   -0.7887 H   0  0  0  0  0  0  0  0  0  0  0  0
    4.0553   -2.9451   -2.2363 H   0  0  0  0  0  0  0  0  0  0  0  0
    4.9824   -3.9781    1.2053 H   0  0  0  0  0  0  0  0  0  0  0  0
    6.1021   -5.7649   -0.0797 H   0  0  0  0  0  0  0  0  0  0  0  0
    7.7698   -5.8693    0.3068 H   0  0  0  0  0  0  0  0  0  0  0  0
    4.5548   -6.5095    1.3661 H   0  0  0  0  0  0  0  0  0  0  0  0
    2.1888   -8.7102    5.8969 H   0  0  0  0  0  0  0  0  0  0  0  0
    4.5623   -8.4734    6.3663 H   0  0  0  0  0  0  0  0  0  0  0  0
    3.6706  -10.5809    6.0768 H   0  0  0  0  0  0  0  0  0  0  0  0
    5.5219   -9.2543    3.6608 H   0  0  0  0  0  0  0  0  0  0  0  0
    7.6086   -6.4949    6.2676 H   0  0  0  0  0  0  0  0  0  0  0  0
    6.0277   -6.9980    6.7873 H   0  0  0  0  0  0  0  0  0  0  0  0
    6.1920   -5.8505    5.4788 H   0  0  0  0  0  0  0  0  0  0  0  0
    8.3014   -8.9258    6.0368 H   0  0  0  0  0  0  0  0  0  0  0  0
    7.3181  -10.0365    5.0955 H   0  0  0  0  0  0  0  0  0  0  0  0
    6.7029   -9.3498    6.5878 H   0  0  0  0  0  0  0  0  0  0  0  0
    8.7205   -7.5115    4.3321 H   0  0  0  0  0  0  0  0  0  0  0  0
    7.1098   -8.7051    2.3891 H   0  0  0  0  0  0  0  0  0  0  0  0
    7.4164   -5.4560    3.7236 H   0  0  0  0  0  0  0  0  0  0  0  0
    9.2591   -6.7821    2.1202 H   0  0  0  0  0  0  0  0  0  0  0  0
   -0.0705  -10.5144    3.6695 H   0  0  0  0  0  0  0  0  0  0  0  0
    0.3616   -9.3564    5.0042 H   0  0  0  0  0  0  0  0  0  0  0  0
    1.0728   -9.4417    2.0742 H   0  0  0  0  0  0  0  0  0  0  0  0
   -0.9632   -7.4777    1.5076 H   0  0  0  0  0  0  0  0  0  0  0  0
    0.4343   -7.8522    0.5039 H   0  0  0  0  0  0  0  0  0  0  0  0
    0.1109   -6.1923    0.9398 H   0  0  0  0  0  0  0  0  0  0  0  0
   -0.5766   -6.1941    3.5797 H   0  0  0  0  0  0  0  0  0  0  0  0
    1.0306   -5.4650    3.5887 H   0  0  0  0  0  0  0  0  0  0  0  0
    0.6216   -6.8101    4.6600 H   0  0  0  0  0  0  0  0  0  0  0  0
    4.4083   -9.9476    1.8814 H   0  0  0  0  0  0  0  0  0  0  0  0
    4.2478   -8.6358    0.7186 H   0  0  0  0  0  0  0  0  0  0  0  0
    2.8993   -9.6788    1.0533 H   0  0  0  0  0  0  0  0  0  0  0  0
    5.8784   -2.0323    2.1543 H   0  0  0  0  0  0  0  0  0  0  0  0
    7.0051   -0.4607    1.0207 H   0  0  0  0  0  0  0  0  0  0  0  0
    3.7057   -1.6131    1.2665 H   0  0  0  0  0  0  0  0  0  0  0  0
    5.0387    0.6254    0.3875 H   0  0  0  0  0  0  0  0  0  0  0  0
    3.1324   -0.9456   -0.9805 H   0  0  0  0  0  0  0  0  0  0  0  0
    5.0094    0.2585   -1.4851 H   0  0  0  0  0  0  0  0  0  0  0  0
  1  2  1  0
  1 40  1  0
  1 41  1  0
  1 42  1  0
  2 38  1  0
  2  3  1  0
  2 43  1  6
  3  4  1  0
  4  5  1  0
  4 34  1  0
  4 44  1  1
  5  6  1  0
  6  7  1  0
  6 45  1  0
  6 46  1  0
  7 22  1  0
  7  8  2  0
  9  8  1  6
  8 47  1  0
  9 16  1  0
  9 32  1  0
  9 10  1  0
 10 11  2  0
 10 12  1  0
 12 13  1  0
 13 14  1  0
 13 24  1  0
 13 48  1  1
 14 15  1  0
 14 16  1  0
 14 49  1  1
 15 50  1  0
 16 17  1  0
 16 51  1  6
 17 18  1  0
 17 19  1  0
 17 20  1  0
 18 52  1  0
 18 53  1  0
 18 54  1  0
 19 55  1  0
 19 56  1  0
 19 57  1  0
 20 21  1  0
 20 22  1  0
 20 58  1  1
 21 59  1  0
 22 23  1  0
 22 60  1  1
 23 61  1  0
 24 27  1  0
 24 32  1  0
 24 25  1  1
 25 26  1  0
 26 27  1  0
 26 62  1  0
 26 63  1  0
 27 28  1  0
 27 64  1  6
 28 29  1  0
 28 30  1  0
 28 31  1  0
 29 65  1  0
 29 66  1  0
 29 67  1  0
 30 68  1  0
 30 69  1  0
 30 70  1  0
 31 32  1  0
 32 33  1  6
 33 71  1  0
 33 72  1  0
 33 73  1  0
 34 35  1  0
 34 36  1  0
 34 74  1  1
 35 75  1  0
 36 37  1  0
 36 38  1  0
 36 76  1  1
 37 77  1  0
 38 39  1  0
 38 78  1  1
 39 79  1  0
M  END
>  <i_m_ct_stereo_status>  (352) 
1

>  <s_m_source_file>  (352) 
/var/tmp/pbs.5083858.sched01/tmpkw71y9o9/1459sfe72gm.sdf

>  <i_m_source_file_index>  (352) 
4

>  <i_lp_mmshare_version>  (352) 
48012

>  <i_f3d_flags>  (352) 
0

>  <s_epik_input>  (352) 
W09IXVtDQEBIXTFbQ0BIXShbT0hdKVtDQEhdKFtPSF0pW0NAQEhdKE9bQ0BIXTFbQ0gzXSlPW0NIMl1DKD1bQ0hdMilbQ0BIXShbT0hdKVtDQEhdKFtPSF0pQyhbQ0gzXSkoW0NIM10pW0NASF0oW0NAXTIzNClbQ0BIXShbT0hdKVtDQEBIXShPQzM9TylbQ0BdNTZbQ0BASF0oW0NIMl1PNSlDKFtDSDNdKShbQ0gzXSlPW0NAQF00NltDSDNd

>  <s_epik_cmdline>  (352) 
J2VwaWtfcHl0aG9uJywgJy1waHQnLCAnMi4wJywgJy1waCcsICc3LjAnLCAnLXRuJywgJzgnLCAnLW1hJywgJzIwMCcsICctaW1hZScsICc8aW5maWxlLm1hZT4nLCAnLW9tYWUnLCAnPG91dGZpbGUubWFlPic=

>  <r_lp_tautomer_probability>  (352) 
1

>  <r_epik_Ionization_Penalty>  (352) 
8.38734e-06

>  <r_epik_Ionization_Penalty_Charging>  (352) 
0

>  <r_epik_Ionization_Penalty_Neutral>  (352) 
8.38734e-06

>  <r_epik_State_Penalty>  (352) 
-0

>  <r_epik_Charging_Adjusted_Penalty>  (352) 
0

>  <i_epik_Tot_Q>  (352) 
0

>  <i_epik_Tot_abs_Q>  (352) 
0

>  <s_epik_Chemistry_Notes>  (352) 
This compound has an ester and may undergo hydrolysis at high or low pH. This compound contains an acetal/aminal-like group ( X-CH(R)-Y where X, Y are N, S, or O) that may be acid/base labile, releasing an aldehyde.

>  <s_lp_Force_Field>  (352) 
OPLS3e

>  <r_lp_Energy>  (352) 
108.666

>  <b_lp_Chiralities_Consistent>  (352) 
1

>  <s_lp_Variant>  (352) 
104:0-1

>  <s_i_glide_gridfile>  (352) 
pfpi4k_grid

>  <i_i_glide_lignum>  (352) 
4

>  <i_i_glide_rotatable_bonds>  (352) 
9

>  <r_i_docking_score>  (352) 
-3.466

>  <r_i_glide_ligand_efficiency>  (352) 
-0.0888718

>  <r_i_glide_ligand_efficiency_sa>  (352) 
-0.301383

>  <r_i_glide_ligand_efficiency_ln>  (352) 
-0.743209

>  <r_i_glide_gscore>  (352) 
-3.466

>  <r_i_glide_lipo>  (352) 
-0.286498

>  <r_i_glide_hbond>  (352) 
0

>  <r_i_glide_metal>  (352) 
-0

>  <r_i_glide_rewards>  (352) 
-0.0829328

>  <r_i_glide_evdw>  (352) 
-35.3361

>  <r_i_glide_ecoul>  (352) 
-9.69997

>  <r_i_glide_erotb>  (352) 
0.125228

>  <r_i_glide_esite>  (352) 
0

>  <r_i_glide_emodel>  (352) 
-53.2438

>  <r_i_glide_energy>  (352) 
-45.036

>  <r_i_glide_einternal>  (352) 
3.48663

>  <r_i_glide_intrahb_reward>  (352) 
-0

>  <i_i_glide_confnum>  (352) 
1

>  <i_i_glide_posenum>  (352) 
1

>  <r_i_glide_eff_state_penalty>  (352) 
0

>  <ligand_id>  (352) 
104

>  <original_smiles>  (352) 
CC1OC(OCC2=CC34C(=O)OC(C(O)C3C(C)(C)C(O)C2O)C23OCC2C(C)(C)OC43C)C(O)C(O)C1O

>  <smiles>  (352) 
[H]OC1([H])C(C([H])([H])OC2([H])OC([H])(C([H])([H])[H])C([H])(O[H])C([H])(O[H])C2([H])O[H])=C([H])C23C(=O)OC([H])(C([H])(O[H])C2([H])C(C([H])([H])[H])(C([H])([H])[H])C1([H])O[H])C12OC([H])([H])C1([H])C(C([H])([H])[H])(C([H])([H])[H])OC32C([H])([H])[H]

$$$$
105:0:0
     RDKit          3D

 84 92  0  0  1  0  0  0  0  0999 V2000
    8.6468   -2.7930    0.1750 C   0  0  0  0  0  0  0  0  0  0  0  0
    7.2112   -3.0802   -0.2839 C   0  0  2  0  0  0  0  0  0  0  0  0
    6.3411   -2.1210    0.2272 O   0  0  0  0  0  0  0  0  0  0  0  0
    5.8673   -2.3247    1.5515 C   0  0  1  0  0  0  0  0  0  0  0  0
    4.5048   -1.6741    1.7478 C   0  0  1  0  0  0  0  0  0  0  0  0
    3.5751   -1.8579    0.5524 C   0  0  2  0  0  0  0  0  0  0  0  0
    2.7453   -3.0150    0.4684 O   0  0  0  0  0  0  0  0  0  0  0  0
    3.7552   -2.9413   -0.5368 C   0  0  1  0  0  0  0  0  0  0  0  0
    3.2084   -2.6139   -1.9329 C   0  0  0  0  0  0  0  0  0  0  0  0
    3.9446   -1.5653   -2.5337 O   0  0  0  0  0  0  0  0  0  0  0  0
    4.5433   -4.2688   -0.4904 C   0  0  1  0  0  0  0  0  0  0  0  0
    5.0104   -4.6353   -1.7650 O   0  0  0  0  0  0  0  0  0  0  0  0
    5.6366   -4.6110    0.6264 C   0  0  1  0  0  0  0  0  0  0  0  0
    5.5366   -5.9720    0.9238 O   0  0  0  0  0  0  0  0  0  0  0  0
    6.9030   -4.3999    0.0676 O   0  0  0  0  0  0  0  0  0  0  0  0
    5.7178   -3.8018    1.9620 C   0  0  2  0  0  0  0  0  0  0  0  0
    4.8795   -4.0555    3.3138 C   0  0  1  0  0  0  0  0  0  0  0  0
    5.0045   -2.7321    3.8441 O   0  0  0  0  0  0  0  0  0  0  0  0
    3.9719   -2.0478    3.1725 C   0  0  1  0  0  0  0  0  0  0  0  0
    3.5820   -0.7969    3.9731 C   0  0  0  0  0  0  0  0  0  0  0  0
    2.8633   -2.9188    3.1220 O   0  0  0  0  0  0  0  0  0  0  0  0
    3.3601   -4.1484    3.6252 C   0  0  2  0  0  0  0  0  0  0  0  0
    3.4351   -4.1304    5.1902 C   0  0  0  0  0  0  0  0  0  0  0  0
    4.6857   -4.7538    5.5043 O   0  0  0  0  0  0  0  0  0  0  0  0
    5.3743   -5.1287    4.3083 C   0  0  1  0  0  0  0  0  0  0  0  0
    4.9384   -6.5963    3.9485 C   0  0  0  0  0  0  0  0  0  0  0  0
    3.3924   -6.7716    3.7901 C   0  0  2  0  0  0  0  0  0  0  0  0
    2.9789   -6.9099    5.1343 O   0  0  0  0  0  0  0  0  0  0  0  0
    2.7098   -8.0148    3.0879 C   0  0  1  0  0  0  0  0  0  0  0  0
    3.2962   -8.2934    1.6537 C   0  0  0  0  0  0  0  0  0  0  0  0
    2.8460   -9.4603    3.7459 C   0  0  1  0  0  0  0  0  0  0  0  0
    3.3270   -9.4965    5.0788 O   0  0  0  0  0  0  0  0  0  0  0  0
    1.6157  -10.3929    3.6640 C   0  0  0  0  0  0  0  0  0  0  0  0
    0.3460   -9.7759    3.0770 C   0  0  0  0  0  0  0  0  0  0  0  0
    0.0896   -8.3472    3.5790 C   0  0  0  0  0  0  0  0  0  0  0  0
   -1.2937   -7.8970    3.0581 C   0  0  0  0  0  0  0  0  0  0  0  0
    0.0231   -8.3642    5.1242 C   0  0  0  0  0  0  0  0  0  0  0  0
    1.2260   -7.4567    2.9594 C   0  0  1  0  0  0  0  0  0  0  0  0
    1.2111   -5.8879    3.1966 C   0  0  1  0  0  0  0  0  0  0  0  0
    0.6000   -5.5046    4.4056 O   0  0  0  0  0  0  0  0  0  0  0  0
    2.7106   -5.5069    3.1633 C   0  0  1  0  0  0  0  0  0  0  0  0
    2.9237   -5.4389    1.7918 O   0  0  0  0  0  0  0  0  0  0  0  0
    8.7476   -2.9917    1.2377 H   0  0  0  0  0  0  0  0  0  0  0  0
    8.9171   -1.7639   -0.0543 H   0  0  0  0  0  0  0  0  0  0  0  0
    9.3288   -3.4542   -0.3513 H   0  0  0  0  0  0  0  0  0  0  0  0
    7.1424   -3.0111   -1.3704 H   0  0  0  0  0  0  0  0  0  0  0  0
    6.6026   -1.8392    2.2079 H   0  0  0  0  0  0  0  0  0  0  0  0
    4.7275   -0.6010    1.7796 H   0  0  0  0  0  0  0  0  0  0  0  0
    3.0682   -0.9600    0.2444 H   0  0  0  0  0  0  0  0  0  0  0  0
    3.1175   -3.4772   -2.5921 H   0  0  0  0  0  0  0  0  0  0  0  0
    2.2004   -2.2469   -1.8406 H   0  0  0  0  0  0  0  0  0  0  0  0
    3.6651   -0.7596   -2.1085 H   0  0  0  0  0  0  0  0  0  0  0  0
    3.7562   -5.0177   -0.3811 H   0  0  0  0  0  0  0  0  0  0  0  0
    4.3588   -5.1927   -2.1824 H   0  0  0  0  0  0  0  0  0  0  0  0
    6.3319   -6.2150    1.3738 H   0  0  0  0  0  0  0  0  0  0  0  0
    6.7032   -4.0836    2.3060 H   0  0  0  0  0  0  0  0  0  0  0  0
    3.2039   -1.0532    4.9641 H   0  0  0  0  0  0  0  0  0  0  0  0
    2.8022   -0.2629    3.4264 H   0  0  0  0  0  0  0  0  0  0  0  0
    4.4548   -0.1399    4.0771 H   0  0  0  0  0  0  0  0  0  0  0  0
    3.4689   -3.1249    5.6061 H   0  0  0  0  0  0  0  0  0  0  0  0
    2.5867   -4.5897    5.6883 H   0  0  0  0  0  0  0  0  0  0  0  0
    6.4492   -5.0655    4.4971 H   0  0  0  0  0  0  0  0  0  0  0  0
    5.4642   -6.9388    3.0730 H   0  0  0  0  0  0  0  0  0  0  0  0
    5.3050   -7.2744    4.7261 H   0  0  0  0  0  0  0  0  0  0  0  0
    3.2134   -7.8064    5.3857 H   0  0  0  0  0  0  0  0  0  0  0  0
    2.8715   -9.2082    1.2445 H   0  0  0  0  0  0  0  0  0  0  0  0
    4.3841   -8.4252    1.6840 H   0  0  0  0  0  0  0  0  0  0  0  0
    3.0816   -7.5561    0.8859 H   0  0  0  0  0  0  0  0  0  0  0  0
    3.6447   -9.9933    3.2230 H   0  0  0  0  0  0  0  0  0  0  0  0
    3.3043  -10.4011    5.3716 H   0  0  0  0  0  0  0  0  0  0  0  0
    1.8699  -11.2814    3.0846 H   0  0  0  0  0  0  0  0  0  0  0  0
    1.3770  -10.7622    4.6587 H   0  0  0  0  0  0  0  0  0  0  0  0
    0.4414   -9.7652    1.9958 H   0  0  0  0  0  0  0  0  0  0  0  0
   -0.5086  -10.4110    3.2865 H   0  0  0  0  0  0  0  0  0  0  0  0
   -1.5349   -6.8894    3.3969 H   0  0  0  0  0  0  0  0  0  0  0  0
   -2.0667   -8.5604    3.4432 H   0  0  0  0  0  0  0  0  0  0  0  0
   -1.3485   -7.9215    1.9727 H   0  0  0  0  0  0  0  0  0  0  0  0
   -0.3969   -7.4477    5.5408 H   0  0  0  0  0  0  0  0  0  0  0  0
    1.0030   -8.5095    5.5766 H   0  0  0  0  0  0  0  0  0  0  0  0
   -0.6039   -9.1877    5.4678 H   0  0  0  0  0  0  0  0  0  0  0  0
    1.0304   -7.5118    1.8914 H   0  0  0  0  0  0  0  0  0  0  0  0
    0.6665   -5.3793    2.4030 H   0  0  0  0  0  0  0  0  0  0  0  0
    1.0691   -5.9692    5.0906 H   0  0  0  0  0  0  0  0  0  0  0  0
    3.8542   -5.3371    1.6428 H   0  0  0  0  0  0  0  0  0  0  0  0
  1  2  1  0
  1 43  1  0
  1 44  1  0
  1 45  1  0
  2 15  1  0
  2  3  1  0
  2 46  1  6
  3  4  1  0
  4 16  1  0
  4  5  1  0
  4 47  1  1
  5 19  1  0
  5  6  1  0
  5 48  1  1
  6  8  1  0
  6  7  1  0
  6 49  1  6
  7  8  1  0
  8  9  1  6
  8 11  1  0
  9 10  1  0
  9 50  1  0
  9 51  1  0
 10 52  1  0
 11 12  1  0
 11 13  1  0
 11 53  1  1
 12 54  1  0
 13 14  1  1
 13 15  1  0
 13 16  1  0
 14 55  1  0
 16 17  1  0
 16 56  1  1
 17 22  1  0
 17 25  1  0
 17 18  1  1
 18 19  1  0
 19 20  1  1
 19 21  1  0
 20 57  1  0
 20 58  1  0
 20 59  1  0
 22 21  1  6
 22 41  1  0
 22 23  1  0
 23 24  1  0
 23 60  1  0
 23 61  1  0
 24 25  1  0
 25 26  1  0
 25 62  1  1
 26 27  1  0
 26 63  1  0
 26 64  1  0
 27 41  1  0
 27 28  1  1
 27 29  1  0
 28 65  1  0
 29 38  1  0
 29 30  1  6
 29 31  1  0
 30 66  1  0
 30 67  1  0
 30 68  1  0
 31 32  1  0
 31 33  1  0
 31 69  1  6
 32 70  1  0
 33 34  1  0
 33 71  1  0
 33 72  1  0
 34 35  1  0
 34 73  1  0
 34 74  1  0
 35 36  1  0
 35 37  1  0
 35 38  1  0
 36 75  1  0
 36 76  1  0
 36 77  1  0
 37 78  1  0
 37 79  1  0
 37 80  1  0
 38 39  1  0
 38 81  1  6
 39 40  1  0
 39 41  1  0
 39 82  1  6
 40 83  1  0
 41 42  1  6
 42 84  1  0
M  END
>  <i_m_ct_stereo_status>  (353) 
1

>  <s_m_source_file>  (353) 
/var/tmp/pbs.5083858.sched01/tmpkw71y9o9/1459sfe72gm.sdf

>  <i_m_source_file_index>  (353) 
5

>  <i_lp_mmshare_version>  (353) 
48012

>  <i_f3d_flags>  (353) 
0

>  <s_epik_input>  (353) 
TzFbQ0BASF0yW0NAQF0xKFtDSDJdW09IXSlbQ0BASF0oW09IXSlbQ0BAXShbT0hdKShPW0NAQEhdKE8zKVtDSDNdKVtDQEhdNFtDQEBIXTNbQ0BASF0yW0NAQF0oTzUpKFtDSDNdKU9bQ0BdNihbQ0BAXTQ1NylbQ0BAXTgoW09IXSlbQ0BdKFtPSF0pKFtDSDJdW0NAQEhdN09bQ0gyXTYpW0NAXTkoW0NIM10pW0NASF0oW0NASF04W09IXSlDKFtDSDNdKShbQ0gzXSlbQ0gyXVtDSDJdW0NAQEhdOVtPSF0=

>  <s_epik_cmdline>  (353) 
J2VwaWtfcHl0aG9uJywgJy1waHQnLCAnMi4wJywgJy1waCcsICc3LjAnLCAnLXRuJywgJzgnLCAnLW1hJywgJzIwMCcsICctaW1hZScsICc8aW5maWxlLm1hZT4nLCAnLW9tYWUnLCAnPG91dGZpbGUubWFlPic=

>  <r_lp_tautomer_probability>  (353) 
1

>  <r_epik_Ionization_Penalty>  (353) 
5.72302e-05

>  <r_epik_Ionization_Penalty_Charging>  (353) 
0

>  <r_epik_Ionization_Penalty_Neutral>  (353) 
5.72302e-05

>  <r_epik_State_Penalty>  (353) 
-0

>  <r_epik_Charging_Adjusted_Penalty>  (353) 
0

>  <i_epik_Tot_Q>  (353) 
0

>  <i_epik_Tot_abs_Q>  (353) 
0

>  <s_epik_Chemistry_Notes>  (353) 
This compound contains an acetal/aminal-like group ( X-CH(R)-Y where X, Y are N, S, or O) that may be acid/base labile, releasing an aldehyde.

>  <s_lp_Force_Field>  (353) 
OPLS3e

>  <r_lp_Energy>  (353) 
174.3

>  <b_lp_Chiralities_Consistent>  (353) 
1

>  <s_lp_Variant>  (353) 
105:0-1

>  <s_i_glide_gridfile>  (353) 
pfpi4k_grid

>  <i_i_glide_lignum>  (353) 
5

>  <i_i_glide_rotatable_bonds>  (353) 
8

>  <r_i_docking_score>  (353) 
-3.84079

>  <r_i_glide_ligand_efficiency>  (353) 
-0.0914473

>  <r_i_glide_ligand_efficiency_sa>  (353) 
-0.317873

>  <r_i_glide_ligand_efficiency_ln>  (353) 
-0.810691

>  <r_i_glide_gscore>  (353) 
-3.84079

>  <r_i_glide_lipo>  (353) 
-0.255393

>  <r_i_glide_hbond>  (353) 
0

>  <r_i_glide_metal>  (353) 
-0

>  <r_i_glide_rewards>  (353) 
-1.253

>  <r_i_glide_evdw>  (353) 
-27.7346

>  <r_i_glide_ecoul>  (353) 
-6.69494

>  <r_i_glide_erotb>  (353) 
0.0585804

>  <r_i_glide_esite>  (353) 
0

>  <r_i_glide_emodel>  (353) 
-51.4423

>  <r_i_glide_energy>  (353) 
-34.4296

>  <r_i_glide_einternal>  (353) 
2.83324

>  <r_i_glide_intrahb_reward>  (353) 
-1

>  <i_i_glide_confnum>  (353) 
3

>  <i_i_glide_posenum>  (353) 
28

>  <r_i_glide_eff_state_penalty>  (353) 
0

>  <ligand_id>  (353) 
105

>  <original_smiles>  (353) 
CC1OC2C3C4OC4(CO)C(O)C(O)(O1)C2C12OC3(C)OC13COC2CC1(O)C2(C)C(O)CCC(C)(C)C2C(O)C13O

>  <smiles>  (353) 
[H]OC([H])([H])C12OC1([H])C1([H])C3([H])OC([H])(C([H])([H])[H])OC(O[H])(C2([H])O[H])C3([H])C23OC1(C([H])([H])[H])OC21C([H])([H])OC3([H])C([H])([H])C2(O[H])C1(O[H])C([H])(O[H])C1([H])C(C([H])([H])[H])(C([H])([H])[H])C([H])([H])C([H])([H])C([H])(O[H])C12C([H])([H])[H]

$$$$
105:0:1
     RDKit          3D

 84 92  0  0  1  0  0  0  0  0999 V2000
    8.4649   -2.5453    0.0594 C   0  0  0  0  0  0  0  0  0  0  0  0
    7.0675   -2.9252   -0.4409 C   0  0  2  0  0  0  0  0  0  0  0  0
    6.1336   -2.0086    0.0486 O   0  0  0  0  0  0  0  0  0  0  0  0
    5.6497   -2.2214    1.3711 C   0  0  1  0  0  0  0  0  0  0  0  0
    4.2479   -1.6506    1.5185 C   0  0  1  0  0  0  0  0  0  0  0  0
    3.3715   -1.9159    0.3027 C   0  0  2  0  0  0  0  0  0  0  0  0
    2.6204   -3.1044    0.2186 O   0  0  0  0  0  0  0  0  0  0  0  0
    3.6327   -2.9928   -0.7599 C   0  0  1  0  0  0  0  0  0  0  0  0
    3.0927   -2.7388   -2.1769 C   0  0  0  0  0  0  0  0  0  0  0  0
    3.8644   -1.7707   -2.8596 O   0  0  0  0  0  0  0  0  0  0  0  0
    4.4900   -4.2755   -0.6639 C   0  0  1  0  0  0  0  0  0  0  0  0
    5.0159   -4.6300   -1.9318 O   0  0  0  0  0  0  0  0  0  0  0  0
    5.5740   -4.5286    0.4679 C   0  0  1  0  0  0  0  0  0  0  0  0
    5.5449   -5.8892    0.7884 O   0  0  0  0  0  0  0  0  0  0  0  0
    6.8385   -4.2511   -0.0818 O   0  0  0  0  0  0  0  0  0  0  0  0
    5.5809   -3.6964    1.7920 C   0  0  2  0  0  0  0  0  0  0  0  0
    4.7046   -3.9870    3.1336 C   0  0  1  0  0  0  0  0  0  0  0  0
    4.7323   -2.6510    3.6438 O   0  0  0  0  0  0  0  0  0  0  0  0
    3.6847   -2.0453    2.9302 C   0  0  1  0  0  0  0  0  0  0  0  0
    3.1944   -0.8011    3.6973 C   0  0  0  0  0  0  0  0  0  0  0  0
    2.6328   -2.9739    2.8599 O   0  0  0  0  0  0  0  0  0  0  0  0
    3.1868   -4.1650    3.3983 C   0  0  2  0  0  0  0  0  0  0  0  0
    3.2080   -4.1156    4.9595 C   0  0  0  0  0  0  0  0  0  0  0  0
    4.4848   -4.6639    5.3238 O   0  0  0  0  0  0  0  0  0  0  0  0
    5.2304   -5.0125    4.1562 C   0  0  1  0  0  0  0  0  0  0  0  0
    4.8886   -6.5106    3.8082 C   0  0  0  0  0  0  0  0  0  0  0  0
    3.3604   -6.7744    3.6126 C   0  0  2  0  0  0  0  0  0  0  0  0
    2.8974   -6.9116    4.9443 O   0  0  0  0  0  0  0  0  0  0  0  0
    2.7791   -8.0680    2.9054 C   0  0  1  0  0  0  0  0  0  0  0  0
    3.4334   -8.3321    1.5049 C   0  0  0  0  0  0  0  0  0  0  0  0
    2.9887   -9.4897    3.5843 C   0  0  1  0  0  0  0  0  0  0  0  0
    3.5071   -9.4549    4.9045 O   0  0  0  0  0  0  0  0  0  0  0  0
    1.8168  -10.4990    3.5020 C   0  0  0  0  0  0  0  0  0  0  0  0
    0.5354   -9.9702    2.8625 C   0  0  0  0  0  0  0  0  0  0  0  0
    0.1712   -8.5543    3.3266 C   0  0  0  0  0  0  0  0  0  0  0  0
   -1.2231   -8.1965    2.7645 C   0  0  0  0  0  0  0  0  0  0  0  0
    0.0623   -8.5521    4.8744 C   0  0  0  0  0  0  0  0  0  0  0  0
    1.2684   -7.6057    2.7264 C   0  0  1  0  0  0  0  0  0  0  0  0
    1.1514   -6.0382    2.9370 C   0  0  1  0  0  0  0  0  0  0  0  0
    0.4842   -5.6773    4.1232 O   0  0  0  0  0  0  0  0  0  0  0  0
    2.6271   -5.5647    2.9420 C   0  0  1  0  0  0  0  0  0  0  0  0
    2.8752   -5.4959    1.5773 O   0  0  0  0  0  0  0  0  0  0  0  0
    8.5094   -2.7175    1.1258 H   0  0  0  0  0  0  0  0  0  0  0  0
    8.6862   -1.5078   -0.1658 H   0  0  0  0  0  0  0  0  0  0  0  0
    9.2098   -3.1789   -0.4180 H   0  0  0  0  0  0  0  0  0  0  0  0
    7.0270   -2.8670   -1.5345 H   0  0  0  0  0  0  0  0  0  0  0  0
    6.3292   -1.6893    2.0428 H   0  0  0  0  0  0  0  0  0  0  0  0
    4.3949   -0.5740    1.5398 H   0  0  0  0  0  0  0  0  0  0  0  0
    2.8411   -1.0372   -0.0351 H   0  0  0  0  0  0  0  0  0  0  0  0
    2.9591   -3.6487   -2.7501 H   0  0  0  0  0  0  0  0  0  0  0  0
    2.0987   -2.3162   -2.0942 H   0  0  0  0  0  0  0  0  0  0  0  0
    3.6663   -0.9314   -2.4728 H   0  0  0  0  0  0  0  0  0  0  0  0
    3.7543   -5.0584   -0.5734 H   0  0  0  0  0  0  0  0  0  0  0  0
    4.3849   -5.2176   -2.3215 H   0  0  0  0  0  0  0  0  0  0  0  0
    6.3387   -6.0797    1.2766 H   0  0  0  0  0  0  0  0  0  0  0  0
    6.5826   -3.8950    2.1737 H   0  0  0  0  0  0  0  0  0  0  0  0
    2.8001   -1.0668    4.6805 H   0  0  0  0  0  0  0  0  0  0  0  0
    2.3976   -0.3276    3.1177 H   0  0  0  0  0  0  0  0  0  0  0  0
    4.0187   -0.0918    3.8139 H   0  0  0  0  0  0  0  0  0  0  0  0
    3.1712   -3.1054    5.3659 H   0  0  0  0  0  0  0  0  0  0  0  0
    2.3728   -4.6153    5.4466 H   0  0  0  0  0  0  0  0  0  0  0  0
    6.2898   -4.8876    4.3785 H   0  0  0  0  0  0  0  0  0  0  0  0
    5.4619   -6.8318    2.9538 H   0  0  0  0  0  0  0  0  0  0  0  0
    5.2759   -7.1466    4.6070 H   0  0  0  0  0  0  0  0  0  0  0  0
    3.1261   -7.7933    5.2285 H   0  0  0  0  0  0  0  0  0  0  0  0
    3.0616   -9.2687    1.0772 H   0  0  0  0  0  0  0  0  0  0  0  0
    4.5233   -8.4129    1.5665 H   0  0  0  0  0  0  0  0  0  0  0  0
    3.2190   -7.5965    0.7399 H   0  0  0  0  0  0  0  0  0  0  0  0
    3.8102   -9.9959    3.0699 H   0  0  0  0  0  0  0  0  0  0  0  0
    4.4495   -9.3841    4.8587 H   0  0  0  0  0  0  0  0  0  0  0  0
    2.1385  -11.3781    2.9492 H   0  0  0  0  0  0  0  0  0  0  0  0
    1.5885  -10.8558    4.5040 H   0  0  0  0  0  0  0  0  0  0  0  0
    0.6614   -9.9824    1.7847 H   0  0  0  0  0  0  0  0  0  0  0  0
   -0.2907  -10.6402    3.0628 H   0  0  0  0  0  0  0  0  0  0  0  0
   -1.5335   -7.2001    3.0737 H   0  0  0  0  0  0  0  0  0  0  0  0
   -1.9653   -8.8980    3.1405 H   0  0  0  0  0  0  0  0  0  0  0  0
   -1.2463   -8.2449    1.6774 H   0  0  0  0  0  0  0  0  0  0  0  0
   -0.4270   -7.6595    5.2631 H   0  0  0  0  0  0  0  0  0  0  0  0
    1.0372   -8.6339    5.3535 H   0  0  0  0  0  0  0  0  0  0  0  0
   -0.5239   -9.4083    5.2133 H   0  0  0  0  0  0  0  0  0  0  0  0
    1.1060   -7.6902    1.6516 H   0  0  0  0  0  0  0  0  0  0  0  0
    0.6028   -5.5778    2.1170 H   0  0  0  0  0  0  0  0  0  0  0  0
    0.9663   -6.0916    4.8284 H   0  0  0  0  0  0  0  0  0  0  0  0
    3.7957   -5.3273    1.4513 H   0  0  0  0  0  0  0  0  0  0  0  0
  1  2  1  0
  1 43  1  0
  1 44  1  0
  1 45  1  0
  2 15  1  0
  2  3  1  0
  2 46  1  6
  3  4  1  0
  4 16  1  0
  4  5  1  0
  4 47  1  1
  5 19  1  0
  5  6  1  0
  5 48  1  1
  6  8  1  0
  6  7  1  0
  6 49  1  6
  7  8  1  0
  8  9  1  6
  8 11  1  0
  9 10  1  0
  9 50  1  0
  9 51  1  0
 10 52  1  0
 11 12  1  0
 11 13  1  0
 11 53  1  1
 12 54  1  0
 13 14  1  1
 13 15  1  0
 13 16  1  0
 14 55  1  0
 16 17  1  0
 16 56  1  1
 17 22  1  0
 17 25  1  0
 17 18  1  1
 18 19  1  0
 19 20  1  1
 19 21  1  0
 20 57  1  0
 20 58  1  0
 20 59  1  0
 22 21  1  6
 22 41  1  0
 22 23  1  0
 23 24  1  0
 23 60  1  0
 23 61  1  0
 24 25  1  0
 25 26  1  0
 25 62  1  1
 26 27  1  0
 26 63  1  0
 26 64  1  0
 27 41  1  0
 27 28  1  1
 27 29  1  0
 28 65  1  0
 29 38  1  0
 29 30  1  6
 29 31  1  0
 30 66  1  0
 30 67  1  0
 30 68  1  0
 31 32  1  0
 31 33  1  0
 31 69  1  6
 32 70  1  0
 33 34  1  0
 33 71  1  0
 33 72  1  0
 34 35  1  0
 34 73  1  0
 34 74  1  0
 35 36  1  0
 35 37  1  0
 35 38  1  0
 36 75  1  0
 36 76  1  0
 36 77  1  0
 37 78  1  0
 37 79  1  0
 37 80  1  0
 38 39  1  0
 38 81  1  6
 39 40  1  0
 39 41  1  0
 39 82  1  6
 40 83  1  0
 41 42  1  6
 42 84  1  0
M  END
>  <i_m_ct_stereo_status>  (354) 
1

>  <s_m_source_file>  (354) 
/var/tmp/pbs.5083858.sched01/tmpkw71y9o9/1459sfe72gm.sdf

>  <i_m_source_file_index>  (354) 
5

>  <i_lp_mmshare_version>  (354) 
48012

>  <i_f3d_flags>  (354) 
0

>  <s_epik_input>  (354) 
TzFbQ0BASF0yW0NAQF0xKFtDSDJdW09IXSlbQ0BASF0oW09IXSlbQ0BAXShbT0hdKShPW0NAQEhdKE8zKVtDSDNdKVtDQEhdNFtDQEBIXTNbQ0BASF0yW0NAQF0oTzUpKFtDSDNdKU9bQ0BdNihbQ0BAXTQ1NylbQ0BAXTgoW09IXSlbQ0BdKFtPSF0pKFtDSDJdW0NAQEhdN09bQ0gyXTYpW0NAXTkoW0NIM10pW0NASF0oW0NASF04W09IXSlDKFtDSDNdKShbQ0gzXSlbQ0gyXVtDSDJdW0NAQEhdOVtPSF0=

>  <s_epik_cmdline>  (354) 
J2VwaWtfcHl0aG9uJywgJy1waHQnLCAnMi4wJywgJy1waCcsICc3LjAnLCAnLXRuJywgJzgnLCAnLW1hJywgJzIwMCcsICctaW1hZScsICc8aW5maWxlLm1hZT4nLCAnLW9tYWUnLCAnPG91dGZpbGUubWFlPic=

>  <r_lp_tautomer_probability>  (354) 
1

>  <r_epik_Ionization_Penalty>  (354) 
5.72302e-05

>  <r_epik_Ionization_Penalty_Charging>  (354) 
0

>  <r_epik_Ionization_Penalty_Neutral>  (354) 
5.72302e-05

>  <r_epik_State_Penalty>  (354) 
-0

>  <r_epik_Charging_Adjusted_Penalty>  (354) 
0

>  <i_epik_Tot_Q>  (354) 
0

>  <i_epik_Tot_abs_Q>  (354) 
0

>  <s_epik_Chemistry_Notes>  (354) 
This compound contains an acetal/aminal-like group ( X-CH(R)-Y where X, Y are N, S, or O) that may be acid/base labile, releasing an aldehyde.

>  <s_lp_Force_Field>  (354) 
OPLS3e

>  <r_lp_Energy>  (354) 
174.3

>  <b_lp_Chiralities_Consistent>  (354) 
1

>  <s_lp_Variant>  (354) 
105:0-1

>  <s_i_glide_gridfile>  (354) 
pfpi4k_grid

>  <i_i_glide_lignum>  (354) 
5

>  <i_i_glide_rotatable_bonds>  (354) 
8

>  <r_i_docking_score>  (354) 
-3.69682

>  <r_i_glide_ligand_efficiency>  (354) 
-0.0880196

>  <r_i_glide_ligand_efficiency_sa>  (354) 
-0.305959

>  <r_i_glide_ligand_efficiency_ln>  (354) 
-0.780304

>  <r_i_glide_gscore>  (354) 
-3.69682

>  <r_i_glide_lipo>  (354) 
-0.276971

>  <r_i_glide_hbond>  (354) 
0

>  <r_i_glide_metal>  (354) 
-0

>  <r_i_glide_rewards>  (354) 
-1.17099

>  <r_i_glide_evdw>  (354) 
-26.5726

>  <r_i_glide_ecoul>  (354) 
-6.52441

>  <r_i_glide_erotb>  (354) 
0.0585804

>  <r_i_glide_esite>  (354) 
-0.000148854

>  <r_i_glide_emodel>  (354) 
-49.9808

>  <r_i_glide_energy>  (354) 
-33.097

>  <r_i_glide_einternal>  (354) 
2.27688

>  <r_i_glide_intrahb_reward>  (354) 
-1

>  <i_i_glide_confnum>  (354) 
3

>  <i_i_glide_posenum>  (354) 
1

>  <r_i_glide_eff_state_penalty>  (354) 
0

>  <ligand_id>  (354) 
105

>  <original_smiles>  (354) 
CC1OC2C3C4OC4(CO)C(O)C(O)(O1)C2C12OC3(C)OC13COC2CC1(O)C2(C)C(O)CCC(C)(C)C2C(O)C13O

>  <smiles>  (354) 
[H]OC([H])([H])C12OC1([H])C1([H])C3([H])OC([H])(C([H])([H])[H])OC(O[H])(C2([H])O[H])C3([H])C23OC1(C([H])([H])[H])OC21C([H])([H])OC3([H])C([H])([H])C2(O[H])C1(O[H])C([H])(O[H])C1([H])C(C([H])([H])[H])(C([H])([H])[H])C([H])([H])C([H])([H])C([H])(O[H])C12C([H])([H])[H]

$$$$
105:0:2
     RDKit          3D

 84 92  0  0  1  0  0  0  0  0999 V2000
    8.8161   -2.7950   -0.0164 C   0  0  0  0  0  0  0  0  0  0  0  0
    7.3632   -2.9556   -0.4578 C   0  0  2  0  0  0  0  0  0  0  0  0
    6.5784   -1.9576    0.0927 O   0  0  0  0  0  0  0  0  0  0  0  0
    6.1433   -2.1485    1.4355 C   0  0  1  0  0  0  0  0  0  0  0  0
    4.8425   -1.4132    1.7032 C   0  0  1  0  0  0  0  0  0  0  0  0
    3.8644   -1.5223    0.5478 C   0  0  2  0  0  0  0  0  0  0  0  0
    2.9662   -2.6056    0.4827 O   0  0  0  0  0  0  0  0  0  0  0  0
    3.9383   -2.5868   -0.5565 C   0  0  1  0  0  0  0  0  0  0  0  0
    3.3675   -2.1928   -1.9107 C   0  0  0  0  0  0  0  0  0  0  0  0
    4.3547   -1.6667   -2.7825 O   0  0  0  0  0  0  0  0  0  0  0  0
    4.5954   -3.9875   -0.5816 C   0  0  1  0  0  0  0  0  0  0  0  0
    5.0055   -4.3304   -1.8879 O   0  0  0  0  0  0  0  0  0  0  0  0
    5.7037   -4.4043    0.4778 C   0  0  1  0  0  0  0  0  0  0  0  0
    5.5280   -5.7566    0.7828 O   0  0  0  0  0  0  0  0  0  0  0  0
    6.9473   -4.2563   -0.1675 O   0  0  0  0  0  0  0  0  0  0  0  0
    5.9206   -3.6243    1.8171 C   0  0  2  0  0  0  0  0  0  0  0  0
    5.1215   -3.8519    3.2083 C   0  0  1  0  0  0  0  0  0  0  0  0
    5.3468   -2.5511    3.7545 O   0  0  0  0  0  0  0  0  0  0  0  0
    4.3355   -1.7871    3.1374 C   0  0  1  0  0  0  0  0  0  0  0  0
    4.0594   -0.5339    3.9746 C   0  0  0  0  0  0  0  0  0  0  0  0
    3.1697   -2.5858    3.1091 O   0  0  0  0  0  0  0  0  0  0  0  0
    3.6092   -3.8506    3.5732 C   0  0  2  0  0  0  0  0  0  0  0  0
    3.7340   -3.8626    5.1376 C   0  0  0  0  0  0  0  0  0  0  0  0
    4.9481   -4.5774    5.3920 O   0  0  0  0  0  0  0  0  0  0  0  0
    5.5643   -4.9847    4.1641 C   0  0  1  0  0  0  0  0  0  0  0  0
    5.0148   -6.4119    3.8065 C   0  0  0  0  0  0  0  0  0  0  0  0
    3.4613   -6.4743    3.7055 C   0  0  2  0  0  0  0  0  0  0  0  0
    3.0988   -6.5974    5.0715 O   0  0  0  0  0  0  0  0  0  0  0  0
    2.6654   -7.6542    3.0165 C   0  0  1  0  0  0  0  0  0  0  0  0
    3.1788   -7.9544    1.5596 C   0  0  0  0  0  0  0  0  0  0  0  0
    2.7343   -9.1195    3.6364 C   0  0  1  0  0  0  0  0  0  0  0  0
    3.3091   -9.2260    4.9242 O   0  0  0  0  0  0  0  0  0  0  0  0
    1.4388   -9.9676    3.5949 C   0  0  0  0  0  0  0  0  0  0  0  0
    0.1932   -9.2578    3.0590 C   0  0  0  0  0  0  0  0  0  0  0  0
    0.0497   -7.8249    3.6022 C   0  0  0  0  0  0  0  0  0  0  0  0
   -1.3115   -7.2689    3.1534 C   0  0  0  0  0  0  0  0  0  0  0  0
    0.0405   -7.8621    5.1451 C   0  0  0  0  0  0  0  0  0  0  0  0
    1.2175   -6.9967    2.9570 C   0  0  1  0  0  0  0  0  0  0  0  0
    1.3279   -5.4321    3.2282 C   0  0  1  0  0  0  0  0  0  0  0  0
    0.8182   -5.0312    4.4786 O   0  0  0  0  0  0  0  0  0  0  0  0
    2.8491   -5.1544    3.1211 C   0  0  1  0  0  0  0  0  0  0  0  0
    3.0179   -5.0825    1.7441 O   0  0  0  0  0  0  0  0  0  0  0  0
    8.9358   -2.9832    1.0432 H   0  0  0  0  0  0  0  0  0  0  0  0
    9.1516   -1.7910   -0.2574 H   0  0  0  0  0  0  0  0  0  0  0  0
    9.4122   -3.5048   -0.5719 H   0  0  0  0  0  0  0  0  0  0  0  0
    7.2970   -2.8355   -1.5403 H   0  0  0  0  0  0  0  0  0  0  0  0
    6.9137   -1.7051    2.0761 H   0  0  0  0  0  0  0  0  0  0  0  0
    5.1310   -0.3591    1.7486 H   0  0  0  0  0  0  0  0  0  0  0  0
    3.4072   -0.5848    0.2654 H   0  0  0  0  0  0  0  0  0  0  0  0
    2.8351   -3.0391   -2.3352 H   0  0  0  0  0  0  0  0  0  0  0  0
    2.6290   -1.4050   -1.7811 H   0  0  0  0  0  0  0  0  0  0  0  0
    3.9129   -1.3877   -3.5740 H   0  0  0  0  0  0  0  0  0  0  0  0
    3.7575   -4.6737   -0.4577 H   0  0  0  0  0  0  0  0  0  0  0  0
    5.7500   -3.7960   -2.0923 H   0  0  0  0  0  0  0  0  0  0  0  0
    6.2902   -6.0392    1.2779 H   0  0  0  0  0  0  0  0  0  0  0  0
    6.9153   -3.9632    2.0738 H   0  0  0  0  0  0  0  0  0  0  0  0
    3.7034   -0.7810    4.9760 H   0  0  0  0  0  0  0  0  0  0  0  0
    3.3015    0.0650    3.4673 H   0  0  0  0  0  0  0  0  0  0  0  0
    4.9856    0.0580    4.0581 H   0  0  0  0  0  0  0  0  0  0  0  0
    3.8553   -2.8691    5.5670 H   0  0  0  0  0  0  0  0  0  0  0  0
    2.8742   -4.2712    5.6626 H   0  0  0  0  0  0  0  0  0  0  0  0
    6.6406   -5.0253    4.3252 H   0  0  0  0  0  0  0  0  0  0  0  0
    5.4877   -6.7837    2.9132 H   0  0  0  0  0  0  0  0  0  0  0  0
    5.3607   -7.1200    4.5668 H   0  0  0  0  0  0  0  0  0  0  0  0
    3.3219   -7.4918    5.3381 H   0  0  0  0  0  0  0  0  0  0  0  0
    2.6730   -8.8321    1.1531 H   0  0  0  0  0  0  0  0  0  0  0  0
    4.2570   -8.1600    1.5480 H   0  0  0  0  0  0  0  0  0  0  0  0
    2.9864   -7.1902    0.8153 H   0  0  0  0  0  0  0  0  0  0  0  0
    3.4666   -9.6895    3.0610 H   0  0  0  0  0  0  0  0  0  0  0  0
    3.3594  -10.1493    5.1440 H   0  0  0  0  0  0  0  0  0  0  0  0
    1.6087  -10.8578    2.9898 H   0  0  0  0  0  0  0  0  0  0  0  0
    1.2165  -10.3336    4.5948 H   0  0  0  0  0  0  0  0  0  0  0  0
    0.2392   -9.2251    1.9768 H   0  0  0  0  0  0  0  0  0  0  0  0
   -0.6938   -9.8410    3.2897 H   0  0  0  0  0  0  0  0  0  0  0  0
   -1.4596   -6.2664    3.5521 H   0  0  0  0  0  0  0  0  0  0  0  0
   -2.1177   -7.8899    3.5426 H   0  0  0  0  0  0  0  0  0  0  0  0
   -1.3996   -7.2517    2.0729 H   0  0  0  0  0  0  0  0  0  0  0  0
   -0.3075   -6.9252    5.5852 H   0  0  0  0  0  0  0  0  0  0  0  0
    1.0275   -8.0753    5.5562 H   0  0  0  0  0  0  0  0  0  0  0  0
   -0.6335   -8.6471    5.4970 H   0  0  0  0  0  0  0  0  0  0  0  0
    0.9858   -7.0147    1.8949 H   0  0  0  0  0  0  0  0  0  0  0  0
    0.7786   -4.8581    2.4788 H   0  0  0  0  0  0  0  0  0  0  0  0
    1.3333   -5.4924    5.1353 H   0  0  0  0  0  0  0  0  0  0  0  0
    3.9340   -5.2429    1.5391 H   0  0  0  0  0  0  0  0  0  0  0  0
  1  2  1  0
  1 43  1  0
  1 44  1  0
  1 45  1  0
  2 15  1  0
  2  3  1  0
  2 46  1  6
  3  4  1  0
  4 16  1  0
  4  5  1  0
  4 47  1  1
  5 19  1  0
  5  6  1  0
  5 48  1  1
  6  8  1  0
  6  7  1  0
  6 49  1  6
  7  8  1  0
  8  9  1  6
  8 11  1  0
  9 10  1  0
  9 50  1  0
  9 51  1  0
 10 52  1  0
 11 12  1  0
 11 13  1  0
 11 53  1  1
 12 54  1  0
 13 14  1  1
 13 15  1  0
 13 16  1  0
 14 55  1  0
 16 17  1  0
 16 56  1  1
 17 22  1  0
 17 25  1  0
 17 18  1  1
 18 19  1  0
 19 20  1  1
 19 21  1  0
 20 57  1  0
 20 58  1  0
 20 59  1  0
 22 21  1  1
 22 41  1  0
 22 23  1  0
 23 24  1  0
 23 60  1  0
 23 61  1  0
 24 25  1  0
 25 26  1  0
 25 62  1  1
 26 27  1  0
 26 63  1  0
 26 64  1  0
 27 41  1  0
 27 28  1  1
 27 29  1  0
 28 65  1  0
 29 38  1  0
 29 30  1  6
 29 31  1  0
 30 66  1  0
 30 67  1  0
 30 68  1  0
 31 32  1  0
 31 33  1  0
 31 69  1  6
 32 70  1  0
 33 34  1  0
 33 71  1  0
 33 72  1  0
 34 35  1  0
 34 73  1  0
 34 74  1  0
 35 36  1  0
 35 37  1  0
 35 38  1  0
 36 75  1  0
 36 76  1  0
 36 77  1  0
 37 78  1  0
 37 79  1  0
 37 80  1  0
 38 39  1  0
 38 81  1  6
 39 40  1  0
 39 41  1  0
 39 82  1  6
 40 83  1  0
 41 42  1  6
 42 84  1  0
M  END
>  <i_m_ct_stereo_status>  (355) 
1

>  <s_m_source_file>  (355) 
/var/tmp/pbs.5083858.sched01/tmpkw71y9o9/1459sfe72gm.sdf

>  <i_m_source_file_index>  (355) 
5

>  <i_lp_mmshare_version>  (355) 
48012

>  <i_f3d_flags>  (355) 
0

>  <s_epik_input>  (355) 
TzFbQ0BASF0yW0NAQF0xKFtDSDJdW09IXSlbQ0BASF0oW09IXSlbQ0BAXShbT0hdKShPW0NAQEhdKE8zKVtDSDNdKVtDQEhdNFtDQEBIXTNbQ0BASF0yW0NAQF0oTzUpKFtDSDNdKU9bQ0BdNihbQ0BAXTQ1NylbQ0BAXTgoW09IXSlbQ0BdKFtPSF0pKFtDSDJdW0NAQEhdN09bQ0gyXTYpW0NAXTkoW0NIM10pW0NASF0oW0NASF04W09IXSlDKFtDSDNdKShbQ0gzXSlbQ0gyXVtDSDJdW0NAQEhdOVtPSF0=

>  <s_epik_cmdline>  (355) 
J2VwaWtfcHl0aG9uJywgJy1waHQnLCAnMi4wJywgJy1waCcsICc3LjAnLCAnLXRuJywgJzgnLCAnLW1hJywgJzIwMCcsICctaW1hZScsICc8aW5maWxlLm1hZT4nLCAnLW9tYWUnLCAnPG91dGZpbGUubWFlPic=

>  <r_lp_tautomer_probability>  (355) 
1

>  <r_epik_Ionization_Penalty>  (355) 
5.72302e-05

>  <r_epik_Ionization_Penalty_Charging>  (355) 
0

>  <r_epik_Ionization_Penalty_Neutral>  (355) 
5.72302e-05

>  <r_epik_State_Penalty>  (355) 
-0

>  <r_epik_Charging_Adjusted_Penalty>  (355) 
0

>  <i_epik_Tot_Q>  (355) 
0

>  <i_epik_Tot_abs_Q>  (355) 
0

>  <s_epik_Chemistry_Notes>  (355) 
This compound contains an acetal/aminal-like group ( X-CH(R)-Y where X, Y are N, S, or O) that may be acid/base labile, releasing an aldehyde.

>  <s_lp_Force_Field>  (355) 
OPLS3e

>  <r_lp_Energy>  (355) 
174.3

>  <b_lp_Chiralities_Consistent>  (355) 
1

>  <s_lp_Variant>  (355) 
105:0-1

>  <s_i_glide_gridfile>  (355) 
pfpi4k_grid

>  <i_i_glide_lignum>  (355) 
5

>  <i_i_glide_rotatable_bonds>  (355) 
8

>  <r_i_docking_score>  (355) 
-2.75176

>  <r_i_glide_ligand_efficiency>  (355) 
-0.0655181

>  <r_i_glide_ligand_efficiency_sa>  (355) 
-0.227743

>  <r_i_glide_ligand_efficiency_ln>  (355) 
-0.580825

>  <r_i_glide_gscore>  (355) 
-2.75176

>  <r_i_glide_lipo>  (355) 
-0.318111

>  <r_i_glide_hbond>  (355) 
0

>  <r_i_glide_metal>  (355) 
-0

>  <r_i_glide_rewards>  (355) 
-1.21913

>  <r_i_glide_evdw>  (355) 
-28.5319

>  <r_i_glide_ecoul>  (355) 
1.0233

>  <r_i_glide_erotb>  (355) 
0.0585804

>  <r_i_glide_esite>  (355) 
0

>  <r_i_glide_emodel>  (355) 
-42.9589

>  <r_i_glide_energy>  (355) 
-27.5086

>  <r_i_glide_einternal>  (355) 
1.55386

>  <r_i_glide_intrahb_reward>  (355) 
-1

>  <i_i_glide_confnum>  (355) 
1

>  <i_i_glide_posenum>  (355) 
29

>  <r_i_glide_eff_state_penalty>  (355) 
0

>  <ligand_id>  (355) 
105

>  <original_smiles>  (355) 
CC1OC2C3C4OC4(CO)C(O)C(O)(O1)C2C12OC3(C)OC13COC2CC1(O)C2(C)C(O)CCC(C)(C)C2C(O)C13O

>  <smiles>  (355) 
[H]OC([H])([H])C12OC1([H])C1([H])C3([H])OC([H])(C([H])([H])[H])OC(O[H])(C2([H])O[H])C3([H])C23OC1(C([H])([H])[H])OC21C([H])([H])OC3([H])C([H])([H])C2(O[H])C1(O[H])C([H])(O[H])C1([H])C(C([H])([H])[H])(C([H])([H])[H])C([H])([H])C([H])([H])C([H])(O[H])C12C([H])([H])[H]

$$$$
106:0:0
     RDKit          3D

 33 34  0  0  1  0  0  0  0  0999 V2000
    0.6574    0.8133    2.8992 C   0  0  0  0  0  0  0  0  0  0  0  0
    1.9577    0.2958    3.4089 N   0  0  1  0  0  0  0  0  0  0  0  0
    2.0954   -1.1890    3.4591 C   0  0  0  0  0  0  0  0  0  0  0  0
    3.4928   -1.4015    2.8496 C   0  0  2  0  0  0  0  0  0  0  0  0
    4.2489   -0.1594    3.2974 C   0  0  0  0  0  0  0  0  0  0  0  0
    3.1940    0.7612    2.7021 C   0  0  1  0  0  0  0  0  0  0  0  0
    3.2034    0.2795    1.2307 C   0  0  0  0  0  0  0  0  0  0  0  0
    3.4096   -1.1792    1.3959 N   0  0  0  0  0  0  0  0  0  0  0  0
    3.3737   -2.1527    0.4470 C   0  0  0  0  0  0  0  0  0  0  0  0
    3.3184   -3.7938    0.8573 S   0  0  0  0  0  0  0  0  0  0  0  0
    3.4210   -1.6504   -0.8199 N   0  0  0  0  0  0  0  0  0  0  0  0
    2.9297   -2.2284   -2.0899 C   0  0  2  0  0  0  0  0  0  0  0  0
    2.1309   -3.4500   -2.0590 N   0  0  0  0  0  0  0  0  0  0  0  0
    4.0428   -2.2479   -3.2098 C   0  0  0  0  0  0  0  0  0  0  0  0
    3.7782   -3.0584   -4.2001 O   0  0  0  0  0  0  0  0  0  0  0  0
    4.1472   -0.6117   -3.9068 Cl  0  0  0  0  0  0  0  0  0  0  0  0
    5.6131   -2.7453   -2.5078 Cl  0  0  0  0  0  0  0  0  0  0  0  0
    0.4248    0.3974    1.9188 H   0  0  0  0  0  0  0  0  0  0  0  0
    0.7012    1.9003    2.8357 H   0  0  0  0  0  0  0  0  0  0  0  0
   -0.1300    0.5339    3.5979 H   0  0  0  0  0  0  0  0  0  0  0  0
    2.0652   -1.5283    4.4938 H   0  0  0  0  0  0  0  0  0  0  0  0
    1.3049   -1.6999    2.9062 H   0  0  0  0  0  0  0  0  0  0  0  0
    3.9725   -2.3299    3.1449 H   0  0  0  0  0  0  0  0  0  0  0  0
    4.3464   -0.1169    4.3838 H   0  0  0  0  0  0  0  0  0  0  0  0
    5.2272   -0.0777    2.8176 H   0  0  0  0  0  0  0  0  0  0  0  0
    3.3946    1.8226    2.8433 H   0  0  0  0  0  0  0  0  0  0  0  0
    2.2640    0.5050    0.7104 H   0  0  0  0  0  0  0  0  0  0  0  0
    4.0339    0.7198    0.6774 H   0  0  0  0  0  0  0  0  0  0  0  0
    3.7563   -0.7053   -0.9043 H   0  0  0  0  0  0  0  0  0  0  0  0
    2.2041   -1.5004   -2.4605 H   0  0  0  0  0  0  0  0  0  0  0  0
    1.5641   -3.5643   -2.8839 H   0  0  0  0  0  0  0  0  0  0  0  0
    2.8137   -4.1932   -2.2200 H   0  0  0  0  0  0  0  0  0  0  0  0
    2.0605    0.6188    4.3711 H   0  0  0  0  0  0  0  0  0  0  0  0
  1  2  1  0
  1 18  1  0
  1 19  1  0
  1 20  1  0
  2  6  1  0
  2  3  1  0
  2 33  1  1
  3  4  1  0
  3 21  1  0
  3 22  1  0
  4  8  1  0
  4  5  1  0
  4 23  1  6
  5  6  1  0
  5 24  1  0
  5 25  1  0
  6  7  1  0
  6 26  1  6
  7  8  1  0
  7 27  1  0
  7 28  1  0
  8  9  1  0
  9 10  2  0
  9 11  1  0
 11 12  1  0
 11 29  1  0
 12 13  1  0
 12 14  1  0
 12 30  1  6
 13 31  1  0
 13 32  1  0
 14 15  1  0
 14 16  1  0
 14 17  1  0
M  CHG  2   2   1  15  -1
M  END
>  <i_m_ct_stereo_status>  (356) 
1

>  <s_m_source_file>  (356) 
/var/tmp/pbs.5083858.sched01/tmpib8m30vq/150lsk850bn.sdf

>  <i_m_source_file_index>  (356) 
1

>  <i_lp_mmshare_version>  (356) 
48012

>  <i_f3d_flags>  (356) 
0

>  <s_epik_input>  (356) 
W0NAQEhdMTJbQ0gyXU4oW0NIM10pW0NAQEhdKFtDSDJdMSlbQ0gyXU4yQyg9UylbTkhdW0NASF0oW05IMl0pQyhDbCkoQ2wpW09IXQ==

>  <s_epik_cmdline>  (356) 
J2VwaWtfcHl0aG9uJywgJy1waHQnLCAnMi4wJywgJy1waCcsICc3LjAnLCAnLXRuJywgJzgnLCAnLW1hJywgJzIwMCcsICctaW1hZScsICc8aW5maWxlLm1hZT4nLCAnLW9tYWUnLCAnPG91dGZpbGUubWFlPic=

>  <r_epik_Ionization_Penalty>  (356) 
0.212335

>  <r_epik_Ionization_Penalty_Charging>  (356) 
0.0458015

>  <r_epik_Ionization_Penalty_Neutral>  (356) 
0.166534

>  <r_epik_State_Penalty>  (356) 
0.194604

>  <r_epik_Charging_Adjusted_Penalty>  (356) 
0.240406

>  <i_epik_Tot_Q>  (356) 
0

>  <i_epik_Tot_abs_Q>  (356) 
2

>  <s_epik_Chemistry_Notes>  (356) 
This compound contains an acetal/aminal-like group ( X-CH(R)-Y where X, Y are N, S, or O) that may be acid/base labile, releasing an aldehyde.

>  <s_lp_Force_Field>  (356) 
OPLS3e

>  <r_lp_Energy>  (356) 
31.8505

>  <b_lp_Chiralities_Consistent>  (356) 
1

>  <s_lp_Variant>  (356) 
106:0-1

>  <s_i_glide_gridfile>  (356) 
pfpi4k_grid

>  <i_i_glide_lignum>  (356) 
1

>  <i_i_glide_rotatable_bonds>  (356) 
4

>  <r_i_docking_score>  (356) 
-4.45196

>  <r_i_glide_ligand_efficiency>  (356) 
-0.26188

>  <r_i_glide_ligand_efficiency_sa>  (356) 
-0.673367

>  <r_i_glide_ligand_efficiency_ln>  (356) 
-1.16142

>  <r_i_glide_gscore>  (356) 
-4.45196

>  <r_i_glide_lipo>  (356) 
-0.632875

>  <r_i_glide_hbond>  (356) 
-0.496402

>  <r_i_glide_metal>  (356) 
-0

>  <r_i_glide_rewards>  (356) 
-1.36895

>  <r_i_glide_evdw>  (356) 
-25.4723

>  <r_i_glide_ecoul>  (356) 
-7.0063

>  <r_i_glide_erotb>  (356) 
0.615293

>  <r_i_glide_esite>  (356) 
-0.244468

>  <r_i_glide_emodel>  (356) 
-37.7043

>  <r_i_glide_energy>  (356) 
-32.4786

>  <r_i_glide_einternal>  (356) 
10.0551

>  <r_i_glide_intrahb_reward>  (356) 
-0

>  <i_i_glide_confnum>  (356) 
6

>  <i_i_glide_posenum>  (356) 
35

>  <r_i_glide_eff_state_penalty>  (356) 
0

>  <ligand_id>  (356) 
106

>  <original_smiles>  (356) 
CN1CC2CC1CN2C(=S)NC(N)C(O)(Cl)Cl

>  <smiles>  (356) 
[H]N([H])C([H])(N([H])C(=S)N1C([H])([H])C2([H])C([H])([H])C1([H])C([H])([H])[N+]2([H])C([H])([H])[H])C([O-])(Cl)Cl

$$$$
106:0:1
     RDKit          3D

 33 34  0  0  1  0  0  0  0  0999 V2000
    0.2339    1.0895    2.1374 C   0  0  0  0  0  0  0  0  0  0  0  0
    1.3807    0.8709    3.0394 N   0  0  1  0  0  0  0  0  0  0  0  0
    1.5635   -0.5207    3.5124 C   0  0  0  0  0  0  0  0  0  0  0  0
    3.0617   -0.7241    3.2811 C   0  0  2  0  0  0  0  0  0  0  0  0
    3.6441    0.6621    3.5465 C   0  0  0  0  0  0  0  0  0  0  0  0
    2.7096    1.2926    2.5245 C   0  0  1  0  0  0  0  0  0  0  0  0
    3.0894    0.4710    1.2656 C   0  0  0  0  0  0  0  0  0  0  0  0
    3.2426   -0.8739    1.8302 N   0  0  0  0  0  0  0  0  0  0  0  0
    3.6491   -2.0184    1.1867 C   0  0  0  0  0  0  0  0  0  0  0  0
    4.1572   -3.3620    2.0658 S   0  0  0  0  0  0  0  0  0  0  0  0
    3.5118   -1.9185   -0.1525 N   0  0  0  0  0  0  0  0  0  0  0  0
    3.6794   -2.9329   -1.2200 C   0  0  2  0  0  0  0  0  0  0  0  0
    3.8262   -4.3050   -0.8479 N   0  0  0  0  0  0  0  0  0  0  0  0
    4.8358   -2.5324   -2.2015 C   0  0  0  0  0  0  0  0  0  0  0  0
    4.5673   -1.3510   -2.7457 O   0  0  0  0  0  0  0  0  0  0  0  0
    6.3853   -2.3761   -1.3399 Cl  0  0  0  0  0  0  0  0  0  0  0  0
    4.9787   -3.6887   -3.5487 Cl  0  0  0  0  0  0  0  0  0  0  0  0
    0.2609    0.4352    1.2670 H   0  0  0  0  0  0  0  0  0  0  0  0
    0.2257    2.1319    1.8051 H   0  0  0  0  0  0  0  0  0  0  0  0
   -0.6913    0.8931    2.6862 H   0  0  0  0  0  0  0  0  0  0  0  0
    1.3190   -0.6296    4.5731 H   0  0  0  0  0  0  0  0  0  0  0  0
    0.9830   -1.2603    2.9527 H   0  0  0  0  0  0  0  0  0  0  0  0
    3.4951   -1.4674    3.9455 H   0  0  0  0  0  0  0  0  0  0  0  0
    3.4845    0.9660    4.5848 H   0  0  0  0  0  0  0  0  0  0  0  0
    4.7062    0.7142    3.2866 H   0  0  0  0  0  0  0  0  0  0  0  0
    2.8395    2.3730    2.4239 H   0  0  0  0  0  0  0  0  0  0  0  0
    2.3081    0.4990    0.4941 H   0  0  0  0  0  0  0  0  0  0  0  0
    4.0362    0.8101    0.8395 H   0  0  0  0  0  0  0  0  0  0  0  0
    3.1343   -1.0454   -0.4980 H   0  0  0  0  0  0  0  0  0  0  0  0
    2.7516   -2.8736   -1.8046 H   0  0  0  0  0  0  0  0  0  0  0  0
    3.6205   -4.9319   -1.6405 H   0  0  0  0  0  0  0  0  0  0  0  0
    4.8093   -4.4785   -0.6874 H   0  0  0  0  0  0  0  0  0  0  0  0
    1.2341    1.4195    3.8805 H   0  0  0  0  0  0  0  0  0  0  0  0
  1  2  1  0
  1 18  1  0
  1 19  1  0
  1 20  1  0
  2  6  1  0
  2  3  1  0
  2 33  1  1
  3  4  1  0
  3 21  1  0
  3 22  1  0
  4  8  1  0
  4  5  1  0
  4 23  1  1
  5  6  1  0
  5 24  1  0
  5 25  1  0
  6  7  1  0
  6 26  1  6
  7  8  1  0
  7 27  1  0
  7 28  1  0
  8  9  1  0
  9 10  2  0
  9 11  1  0
 11 12  1  0
 11 29  1  0
 12 13  1  0
 12 14  1  0
 12 30  1  6
 13 31  1  0
 13 32  1  0
 14 15  1  0
 14 16  1  0
 14 17  1  0
M  CHG  2   2   1  15  -1
M  END
>  <i_m_ct_stereo_status>  (357) 
1

>  <s_m_source_file>  (357) 
/var/tmp/pbs.5083858.sched01/tmpib8m30vq/150lsk850bn.sdf

>  <i_m_source_file_index>  (357) 
1

>  <i_lp_mmshare_version>  (357) 
48012

>  <i_f3d_flags>  (357) 
0

>  <s_epik_input>  (357) 
W0NAQEhdMTJbQ0gyXU4oW0NIM10pW0NAQEhdKFtDSDJdMSlbQ0gyXU4yQyg9UylbTkhdW0NASF0oW05IMl0pQyhDbCkoQ2wpW09IXQ==

>  <s_epik_cmdline>  (357) 
J2VwaWtfcHl0aG9uJywgJy1waHQnLCAnMi4wJywgJy1waCcsICc3LjAnLCAnLXRuJywgJzgnLCAnLW1hJywgJzIwMCcsICctaW1hZScsICc8aW5maWxlLm1hZT4nLCAnLW9tYWUnLCAnPG91dGZpbGUubWFlPic=

>  <r_epik_Ionization_Penalty>  (357) 
0.212335

>  <r_epik_Ionization_Penalty_Charging>  (357) 
0.0458015

>  <r_epik_Ionization_Penalty_Neutral>  (357) 
0.166534

>  <r_epik_State_Penalty>  (357) 
0.194604

>  <r_epik_Charging_Adjusted_Penalty>  (357) 
0.240406

>  <i_epik_Tot_Q>  (357) 
0

>  <i_epik_Tot_abs_Q>  (357) 
2

>  <s_epik_Chemistry_Notes>  (357) 
This compound contains an acetal/aminal-like group ( X-CH(R)-Y where X, Y are N, S, or O) that may be acid/base labile, releasing an aldehyde.

>  <s_lp_Force_Field>  (357) 
OPLS3e

>  <r_lp_Energy>  (357) 
31.8505

>  <b_lp_Chiralities_Consistent>  (357) 
1

>  <s_lp_Variant>  (357) 
106:0-1

>  <s_i_glide_gridfile>  (357) 
pfpi4k_grid

>  <i_i_glide_lignum>  (357) 
1

>  <i_i_glide_rotatable_bonds>  (357) 
4

>  <r_i_docking_score>  (357) 
-3.89415

>  <r_i_glide_ligand_efficiency>  (357) 
-0.229068

>  <r_i_glide_ligand_efficiency_sa>  (357) 
-0.588997

>  <r_i_glide_ligand_efficiency_ln>  (357) 
-1.0159

>  <r_i_glide_gscore>  (357) 
-3.89415

>  <r_i_glide_lipo>  (357) 
-0.329866

>  <r_i_glide_hbond>  (357) 
-0.320701

>  <r_i_glide_metal>  (357) 
-0

>  <r_i_glide_rewards>  (357) 
-1.37759

>  <r_i_glide_evdw>  (357) 
-22.0069

>  <r_i_glide_ecoul>  (357) 
-8.31511

>  <r_i_glide_erotb>  (357) 
0.615293

>  <r_i_glide_esite>  (357) 
-0.133672

>  <r_i_glide_emodel>  (357) 
-39.2003

>  <r_i_glide_energy>  (357) 
-30.3221

>  <r_i_glide_einternal>  (357) 
2.29147

>  <r_i_glide_intrahb_reward>  (357) 
-0

>  <i_i_glide_confnum>  (357) 
6

>  <i_i_glide_posenum>  (357) 
16

>  <r_i_glide_eff_state_penalty>  (357) 
0

>  <ligand_id>  (357) 
106

>  <original_smiles>  (357) 
CN1CC2CC1CN2C(=S)NC(N)C(O)(Cl)Cl

>  <smiles>  (357) 
[H]N([H])C([H])(N([H])C(=S)N1C([H])([H])C2([H])C([H])([H])C1([H])C([H])([H])[N+]2([H])C([H])([H])[H])C([O-])(Cl)Cl

$$$$
106:0:2
     RDKit          3D

 33 34  0  0  1  0  0  0  0  0999 V2000
   -0.2488    1.1184    2.0929 C   0  0  0  0  0  0  0  0  0  0  0  0
    0.8834    1.0197    3.0222 N   0  0  1  0  0  0  0  0  0  0  0  0
    1.1215   -0.3207    3.5956 C   0  0  0  0  0  0  0  0  0  0  0  0
    2.6324   -0.4599    3.4156 C   0  0  2  0  0  0  0  0  0  0  0  0
    3.1293    0.9648    3.5905 C   0  0  0  0  0  0  0  0  0  0  0  0
    2.2002    1.4664    2.4969 C   0  0  1  0  0  0  0  0  0  0  0  0
    2.6613    0.5776    1.3119 C   0  0  0  0  0  0  0  0  0  0  0  0
    2.8849   -0.7165    1.9883 N   0  0  0  0  0  0  0  0  0  0  0  0
    3.2113   -1.9243    1.4626 C   0  0  0  0  0  0  0  0  0  0  0  0
    3.2264   -3.3037    2.4274 S   0  0  0  0  0  0  0  0  0  0  0  0
    3.5001   -1.8287    0.1311 N   0  0  0  0  0  0  0  0  0  0  0  0
    3.9391   -2.8487   -0.8581 C   0  0  2  0  0  0  0  0  0  0  0  0
    4.5435   -4.1253   -0.3954 N   0  0  0  0  0  0  0  0  0  0  0  0
    4.8951   -2.2162   -1.9323 C   0  0  0  0  0  0  0  0  0  0  0  0
    6.0155   -1.8485   -1.3974 O   0  0  0  0  0  0  0  0  0  0  0  0
    5.2691   -3.4393   -3.1767 Cl  0  0  0  0  0  0  0  0  0  0  0  0
    4.1763   -0.7911   -2.7186 Cl  0  0  0  0  0  0  0  0  0  0  0  0
   -0.1755    0.4150    1.2741 H   0  0  0  0  0  0  0  0  0  0  0  0
   -0.3072    2.1246    1.6810 H   0  0  0  0  0  0  0  0  0  0  0  0
   -1.1807    0.9214    2.6215 H   0  0  0  0  0  0  0  0  0  0  0  0
    0.8480   -0.3647    4.6472 H   0  0  0  0  0  0  0  0  0  0  0  0
    0.5890   -1.1214    3.0909 H   0  0  0  0  0  0  0  0  0  0  0  0
    3.1047   -1.1391    4.1277 H   0  0  0  0  0  0  0  0  0  0  0  0
    2.9288    1.3342    4.6039 H   0  0  0  0  0  0  0  0  0  0  0  0
    4.1980    1.0550    3.3562 H   0  0  0  0  0  0  0  0  0  0  0  0
    2.2746    2.5383    2.3227 H   0  0  0  0  0  0  0  0  0  0  0  0
    1.9026    0.5174    0.5269 H   0  0  0  0  0  0  0  0  0  0  0  0
    3.6006    0.9341    0.8800 H   0  0  0  0  0  0  0  0  0  0  0  0
    3.2459   -0.9553   -0.2916 H   0  0  0  0  0  0  0  0  0  0  0  0
    3.0375   -3.1100   -1.4095 H   0  0  0  0  0  0  0  0  0  0  0  0
    4.4619   -4.9075   -1.0568 H   0  0  0  0  0  0  0  0  0  0  0  0
    5.5452   -3.9715   -0.2700 H   0  0  0  0  0  0  0  0  0  0  0  0
    0.6858    1.6140    3.8043 H   0  0  0  0  0  0  0  0  0  0  0  0
  1  2  1  0
  1 18  1  0
  1 19  1  0
  1 20  1  0
  2  6  1  0
  2  3  1  0
  2 33  1  1
  3  4  1  0
  3 21  1  0
  3 22  1  0
  4  8  1  0
  4  5  1  0
  4 23  1  1
  5  6  1  0
  5 24  1  0
  5 25  1  0
  6  7  1  0
  6 26  1  6
  7  8  1  0
  7 27  1  0
  7 28  1  0
  8  9  1  0
  9 10  2  0
  9 11  1  0
 11 12  1  0
 11 29  1  0
 12 13  1  0
 12 14  1  0
 12 30  1  6
 13 31  1  0
 13 32  1  0
 14 15  1  0
 14 16  1  0
 14 17  1  0
M  CHG  2   2   1  15  -1
M  END
>  <i_m_ct_stereo_status>  (358) 
1

>  <s_m_source_file>  (358) 
/var/tmp/pbs.5083858.sched01/tmpib8m30vq/150lsk850bn.sdf

>  <i_m_source_file_index>  (358) 
1

>  <i_lp_mmshare_version>  (358) 
48012

>  <i_f3d_flags>  (358) 
0

>  <s_epik_input>  (358) 
W0NAQEhdMTJbQ0gyXU4oW0NIM10pW0NAQEhdKFtDSDJdMSlbQ0gyXU4yQyg9UylbTkhdW0NASF0oW05IMl0pQyhDbCkoQ2wpW09IXQ==

>  <s_epik_cmdline>  (358) 
J2VwaWtfcHl0aG9uJywgJy1waHQnLCAnMi4wJywgJy1waCcsICc3LjAnLCAnLXRuJywgJzgnLCAnLW1hJywgJzIwMCcsICctaW1hZScsICc8aW5maWxlLm1hZT4nLCAnLW9tYWUnLCAnPG91dGZpbGUubWFlPic=

>  <r_epik_Ionization_Penalty>  (358) 
0.212335

>  <r_epik_Ionization_Penalty_Charging>  (358) 
0.0458015

>  <r_epik_Ionization_Penalty_Neutral>  (358) 
0.166534

>  <r_epik_State_Penalty>  (358) 
0.194604

>  <r_epik_Charging_Adjusted_Penalty>  (358) 
0.240406

>  <i_epik_Tot_Q>  (358) 
0

>  <i_epik_Tot_abs_Q>  (358) 
2

>  <s_epik_Chemistry_Notes>  (358) 
This compound contains an acetal/aminal-like group ( X-CH(R)-Y where X, Y are N, S, or O) that may be acid/base labile, releasing an aldehyde.

>  <s_lp_Force_Field>  (358) 
OPLS3e

>  <r_lp_Energy>  (358) 
31.8505

>  <b_lp_Chiralities_Consistent>  (358) 
1

>  <s_lp_Variant>  (358) 
106:0-1

>  <s_i_glide_gridfile>  (358) 
pfpi4k_grid

>  <i_i_glide_lignum>  (358) 
1

>  <i_i_glide_rotatable_bonds>  (358) 
4

>  <r_i_docking_score>  (358) 
-3.47612

>  <r_i_glide_ligand_efficiency>  (358) 
-0.204477

>  <r_i_glide_ligand_efficiency_sa>  (358) 
-0.525769

>  <r_i_glide_ligand_efficiency_ln>  (358) 
-0.906842

>  <r_i_glide_gscore>  (358) 
-3.47612

>  <r_i_glide_lipo>  (358) 
-0.351473

>  <r_i_glide_hbond>  (358) 
-0.118022

>  <r_i_glide_metal>  (358) 
-0

>  <r_i_glide_rewards>  (358) 
-1.36933

>  <r_i_glide_evdw>  (358) 
-26.2204

>  <r_i_glide_ecoul>  (358) 
-5.28884

>  <r_i_glide_erotb>  (358) 
0.615293

>  <r_i_glide_esite>  (358) 
-0.148237

>  <r_i_glide_emodel>  (358) 
-38.1909

>  <r_i_glide_energy>  (358) 
-31.5092

>  <r_i_glide_einternal>  (358) 
3.51556

>  <r_i_glide_intrahb_reward>  (358) 
-0

>  <i_i_glide_confnum>  (358) 
6

>  <i_i_glide_posenum>  (358) 
37

>  <r_i_glide_eff_state_penalty>  (358) 
0

>  <ligand_id>  (358) 
106

>  <original_smiles>  (358) 
CN1CC2CC1CN2C(=S)NC(N)C(O)(Cl)Cl

>  <smiles>  (358) 
[H]N([H])C([H])(N([H])C(=S)N1C([H])([H])C2([H])C([H])([H])C1([H])C([H])([H])[N+]2([H])C([H])([H])[H])C([O-])(Cl)Cl

$$$$
106:1:0
     RDKit          3D

 34 35  0  0  1  0  0  0  0  0999 V2000
    3.5194   -5.6507    3.6477 C   0  0  0  0  0  0  0  0  0  0  0  0
    4.1027   -6.3251    2.4646 N   0  0  1  0  0  0  0  0  0  0  0  0
    3.5387   -5.9295    1.1476 C   0  0  0  0  0  0  0  0  0  0  0  0
    4.8000   -5.6932    0.2957 C   0  0  2  0  0  0  0  0  0  0  0  0
    5.7472   -6.7337    0.8844 C   0  0  0  0  0  0  0  0  0  0  0  0
    5.5727   -6.2028    2.2939 C   0  0  1  0  0  0  0  0  0  0  0  0
    5.9819   -4.7278    2.0709 C   0  0  0  0  0  0  0  0  0  0  0  0
    5.3857   -4.4368    0.7575 N   0  0  0  0  0  0  0  0  0  0  0  0
    5.4971   -3.2570    0.0588 C   0  0  0  0  0  0  0  0  0  0  0  0
    6.4316   -1.9694    0.5567 S   0  0  0  0  0  0  0  0  0  0  0  0
    4.6628   -3.2333   -1.0281 N   0  0  0  0  0  0  0  0  0  0  0  0
    4.3564   -2.0387   -1.8416 C   0  0  2  0  0  0  0  0  0  0  0  0
    3.4206   -1.0716   -1.2560 N   0  0  0  0  0  0  0  0  0  0  0  0
    3.8370   -2.4100   -3.2409 C   0  0  0  0  0  0  0  0  0  0  0  0
    4.6133   -3.3066   -3.7807 O   0  0  0  0  0  0  0  0  0  0  0  0
    2.2035   -3.0597   -3.1263 Cl  0  0  0  0  0  0  0  0  0  0  0  0
    3.8161   -0.9942   -4.3184 Cl  0  0  0  0  0  0  0  0  0  0  0  0
    3.5668   -4.5645    3.5696 H   0  0  0  0  0  0  0  0  0  0  0  0
    4.0375   -5.9469    4.5608 H   0  0  0  0  0  0  0  0  0  0  0  0
    2.4703   -5.9243    3.7675 H   0  0  0  0  0  0  0  0  0  0  0  0
    2.9116   -6.7277    0.7517 H   0  0  0  0  0  0  0  0  0  0  0  0
    2.9255   -5.0296    1.2149 H   0  0  0  0  0  0  0  0  0  0  0  0
    4.6534   -5.7807   -0.7796 H   0  0  0  0  0  0  0  0  0  0  0  0
    5.4043   -7.7619    0.7582 H   0  0  0  0  0  0  0  0  0  0  0  0
    6.7687   -6.6387    0.5244 H   0  0  0  0  0  0  0  0  0  0  0  0
    6.1432   -6.7278    3.0621 H   0  0  0  0  0  0  0  0  0  0  0  0
    5.6049   -4.0700    2.8535 H   0  0  0  0  0  0  0  0  0  0  0  0
    7.0668   -4.6358    2.0439 H   0  0  0  0  0  0  0  0  0  0  0  0
    4.1618   -4.0718   -1.2817 H   0  0  0  0  0  0  0  0  0  0  0  0
    5.3006   -1.5228   -2.0111 H   0  0  0  0  0  0  0  0  0  0  0  0
    3.3208   -0.2854   -1.8918 H   0  0  0  0  0  0  0  0  0  0  0  0
    3.7662   -0.7566   -0.3614 H   0  0  0  0  0  0  0  0  0  0  0  0
    3.9103   -7.3131    2.5788 H   0  0  0  0  0  0  0  0  0  0  0  0
    2.4795   -1.4591   -1.1400 H   0  0  0  0  0  0  0  0  0  0  0  0
  1  2  1  0
  1 18  1  0
  1 19  1  0
  1 20  1  0
  2  6  1  0
  2  3  1  0
  2 33  1  1
  3  4  1  0
  3 21  1  0
  3 22  1  0
  4  8  1  0
  4  5  1  0
  4 23  1  6
  5  6  1  0
  5 24  1  0
  5 25  1  0
  6  7  1  0
  6 26  1  1
  7  8  1  0
  7 27  1  0
  7 28  1  0
  8  9  1  0
  9 10  2  0
  9 11  1  0
 11 12  1  0
 11 29  1  0
 12 13  1  0
 12 14  1  0
 12 30  1  6
 13 31  1  0
 13 32  1  0
 13 34  1  0
 14 15  1  0
 14 16  1  0
 14 17  1  0
M  CHG  3   2   1  13   1  15  -1
M  END
>  <i_m_ct_stereo_status>  (359) 
1

>  <s_m_source_file>  (359) 
/var/tmp/pbs.5083858.sched01/tmpib8m30vq/150lsk850bn.sdf

>  <i_m_source_file_index>  (359) 
2

>  <i_lp_mmshare_version>  (359) 
48012

>  <i_f3d_flags>  (359) 
0

>  <s_epik_input>  (359) 
W0NAQEhdMTJbQ0gyXU4oW0NIM10pW0NAQEhdKFtDSDJdMSlbQ0gyXU4yQyg9UylbTkhdW0NASF0oW05IMl0pQyhDbCkoQ2wpW09IXQ==

>  <s_epik_cmdline>  (359) 
J2VwaWtfcHl0aG9uJywgJy1waHQnLCAnMi4wJywgJy1waCcsICc3LjAnLCAnLXRuJywgJzgnLCAnLW1hJywgJzIwMCcsICctaW1hZScsICc8aW5maWxlLm1hZT4nLCAnLW9tYWUnLCAnPG91dGZpbGUubWFlPic=

>  <r_epik_Ionization_Penalty>  (359) 
0.86419

>  <r_epik_Ionization_Penalty_Charging>  (359) 
0.864188

>  <r_epik_Ionization_Penalty_Neutral>  (359) 
2.0563e-06

>  <r_epik_State_Penalty>  (359) 
0.879531

>  <r_epik_Charging_Adjusted_Penalty>  (359) 
1.74372

>  <i_epik_Tot_Q>  (359) 
1

>  <i_epik_Tot_abs_Q>  (359) 
3

>  <s_epik_Chemistry_Notes>  (359) 
This compound contains an acetal/aminal-like group ( X-CH(R)-Y where X, Y are N, S, or O) that may be acid/base labile, releasing an aldehyde.

>  <s_lp_Force_Field>  (359) 
OPLS3e

>  <r_lp_Energy>  (359) 
28.8395

>  <b_lp_Chiralities_Consistent>  (359) 
1

>  <s_lp_Variant>  (359) 
106:0-2

>  <s_i_glide_gridfile>  (359) 
pfpi4k_grid

>  <i_i_glide_lignum>  (359) 
2

>  <i_i_glide_rotatable_bonds>  (359) 
4

>  <r_i_docking_score>  (359) 
-4.34184

>  <r_i_glide_ligand_efficiency>  (359) 
-0.255402

>  <r_i_glide_ligand_efficiency_sa>  (359) 
-0.656711

>  <r_i_glide_ligand_efficiency_ln>  (359) 
-1.13269

>  <r_i_glide_gscore>  (359) 
-4.34184

>  <r_i_glide_lipo>  (359) 
-0.634191

>  <r_i_glide_hbond>  (359) 
-0.172246

>  <r_i_glide_metal>  (359) 
-0

>  <r_i_glide_rewards>  (359) 
-1.60242

>  <r_i_glide_evdw>  (359) 
-27.2541

>  <r_i_glide_ecoul>  (359) 
-7.1807

>  <r_i_glide_erotb>  (359) 
0.611683

>  <r_i_glide_esite>  (359) 
-0.104854

>  <r_i_glide_emodel>  (359) 
-46.4554

>  <r_i_glide_energy>  (359) 
-34.4348

>  <r_i_glide_einternal>  (359) 
1.0708

>  <r_i_glide_intrahb_reward>  (359) 
-0

>  <i_i_glide_confnum>  (359) 
1

>  <i_i_glide_posenum>  (359) 
5

>  <r_i_glide_eff_state_penalty>  (359) 
0

>  <ligand_id>  (359) 
106

>  <original_smiles>  (359) 
CN1CC2CC1CN2C(=S)NC(N)C(O)(Cl)Cl

>  <smiles>  (359) 
[H]N(C(=S)N1C([H])([H])C2([H])C([H])([H])C1([H])C([H])([H])[N+]2([H])C([H])([H])[H])C([H])(C([O-])(Cl)Cl)[N+]([H])([H])[H]

$$$$
106:1:1
     RDKit          3D

 34 35  0  0  1  0  0  0  0  0999 V2000
    2.7334   -6.2234    3.8703 C   0  0  0  0  0  0  0  0  0  0  0  0
    3.0664   -6.7710    2.5358 N   0  0  1  0  0  0  0  0  0  0  0  0
    2.4409   -6.0846    1.3779 C   0  0  0  0  0  0  0  0  0  0  0  0
    3.6229   -5.9055    0.4049 C   0  0  2  0  0  0  0  0  0  0  0  0
    4.4366   -7.1546    0.7066 C   0  0  0  0  0  0  0  0  0  0  0  0
    4.5069   -6.8354    2.1880 C   0  0  1  0  0  0  0  0  0  0  0  0
    5.1204   -5.4194    2.1341 C   0  0  0  0  0  0  0  0  0  0  0  0
    4.4811   -4.8488    0.9413 N   0  0  0  0  0  0  0  0  0  0  0  0
    4.6549   -3.5783    0.4643 C   0  0  0  0  0  0  0  0  0  0  0  0
    5.3748   -2.3621    1.3605 S   0  0  0  0  0  0  0  0  0  0  0  0
    4.2014   -3.4385   -0.8211 N   0  0  0  0  0  0  0  0  0  0  0  0
    4.2170   -2.1840   -1.6017 C   0  0  2  0  0  0  0  0  0  0  0  0
    3.4149   -1.0880   -1.0600 N   0  0  0  0  0  0  0  0  0  0  0  0
    3.8052   -2.3983   -3.0735 C   0  0  0  0  0  0  0  0  0  0  0  0
    4.6165   -3.2278   -3.6515 O   0  0  0  0  0  0  0  0  0  0  0  0
    2.1787   -3.0621   -3.1356 Cl  0  0  0  0  0  0  0  0  0  0  0  0
    3.8304   -0.8797   -4.0098 Cl  0  0  0  0  0  0  0  0  0  0  0  0
    2.9445   -5.1583    3.9445 H   0  0  0  0  0  0  0  0  0  0  0  0
    3.2976   -6.7317    4.6513 H   0  0  0  0  0  0  0  0  0  0  0  0
    1.6751   -6.3616    4.0914 H   0  0  0  0  0  0  0  0  0  0  0  0
    1.6527   -6.7085    0.9586 H   0  0  0  0  0  0  0  0  0  0  0  0
    1.9919   -5.1308    1.6560 H   0  0  0  0  0  0  0  0  0  0  0  0
    3.3379   -5.7833   -0.6332 H   0  0  0  0  0  0  0  0  0  0  0  0
    3.9204   -8.0890    0.4831 H   0  0  0  0  0  0  0  0  0  0  0  0
    5.4132   -7.1414    0.2255 H   0  0  0  0  0  0  0  0  0  0  0  0
    5.0664   -7.5538    2.7874 H   0  0  0  0  0  0  0  0  0  0  0  0
    4.9318   -4.8433    3.0392 H   0  0  0  0  0  0  0  0  0  0  0  0
    6.1971   -5.4702    1.9844 H   0  0  0  0  0  0  0  0  0  0  0  0
    3.8177   -4.2402   -1.3025 H   0  0  0  0  0  0  0  0  0  0  0  0
    5.2550   -1.8500   -1.6221 H   0  0  0  0  0  0  0  0  0  0  0  0
    3.5436   -0.2704   -1.6403 H   0  0  0  0  0  0  0  0  0  0  0  0
    3.7099   -0.9020   -0.1153 H   0  0  0  0  0  0  0  0  0  0  0  0
    2.7313   -7.7257    2.5300 H   0  0  0  0  0  0  0  0  0  0  0  0
    2.4108   -1.3146   -1.0703 H   0  0  0  0  0  0  0  0  0  0  0  0
  1  2  1  0
  1 18  1  0
  1 19  1  0
  1 20  1  0
  2  6  1  0
  2  3  1  0
  2 33  1  1
  3  4  1  0
  3 21  1  0
  3 22  1  0
  4  8  1  0
  4  5  1  0
  4 23  1  6
  5  6  1  0
  5 24  1  0
  5 25  1  0
  6  7  1  0
  6 26  1  1
  7  8  1  0
  7 27  1  0
  7 28  1  0
  8  9  1  0
  9 10  2  0
  9 11  1  0
 11 12  1  0
 11 29  1  0
 12 13  1  0
 12 14  1  0
 12 30  1  6
 13 31  1  0
 13 32  1  0
 13 34  1  0
 14 15  1  0
 14 16  1  0
 14 17  1  0
M  CHG  3   2   1  13   1  15  -1
M  END
>  <i_m_ct_stereo_status>  (360) 
1

>  <s_m_source_file>  (360) 
/var/tmp/pbs.5083858.sched01/tmpib8m30vq/150lsk850bn.sdf

>  <i_m_source_file_index>  (360) 
2

>  <i_lp_mmshare_version>  (360) 
48012

>  <i_f3d_flags>  (360) 
0

>  <s_epik_input>  (360) 
W0NAQEhdMTJbQ0gyXU4oW0NIM10pW0NAQEhdKFtDSDJdMSlbQ0gyXU4yQyg9UylbTkhdW0NASF0oW05IMl0pQyhDbCkoQ2wpW09IXQ==

>  <s_epik_cmdline>  (360) 
J2VwaWtfcHl0aG9uJywgJy1waHQnLCAnMi4wJywgJy1waCcsICc3LjAnLCAnLXRuJywgJzgnLCAnLW1hJywgJzIwMCcsICctaW1hZScsICc8aW5maWxlLm1hZT4nLCAnLW9tYWUnLCAnPG91dGZpbGUubWFlPic=

>  <r_epik_Ionization_Penalty>  (360) 
0.86419

>  <r_epik_Ionization_Penalty_Charging>  (360) 
0.864188

>  <r_epik_Ionization_Penalty_Neutral>  (360) 
2.0563e-06

>  <r_epik_State_Penalty>  (360) 
0.879531

>  <r_epik_Charging_Adjusted_Penalty>  (360) 
1.74372

>  <i_epik_Tot_Q>  (360) 
1

>  <i_epik_Tot_abs_Q>  (360) 
3

>  <s_epik_Chemistry_Notes>  (360) 
This compound contains an acetal/aminal-like group ( X-CH(R)-Y where X, Y are N, S, or O) that may be acid/base labile, releasing an aldehyde.

>  <s_lp_Force_Field>  (360) 
OPLS3e

>  <r_lp_Energy>  (360) 
28.8395

>  <b_lp_Chiralities_Consistent>  (360) 
1

>  <s_lp_Variant>  (360) 
106:0-2

>  <s_i_glide_gridfile>  (360) 
pfpi4k_grid

>  <i_i_glide_lignum>  (360) 
2

>  <i_i_glide_rotatable_bonds>  (360) 
4

>  <r_i_docking_score>  (360) 
-4.24591

>  <r_i_glide_ligand_efficiency>  (360) 
-0.249759

>  <r_i_glide_ligand_efficiency_sa>  (360) 
-0.642201

>  <r_i_glide_ligand_efficiency_ln>  (360) 
-1.10766

>  <r_i_glide_gscore>  (360) 
-4.24591

>  <r_i_glide_lipo>  (360) 
-0.643106

>  <r_i_glide_hbond>  (360) 
-0.2

>  <r_i_glide_metal>  (360) 
-0

>  <r_i_glide_rewards>  (360) 
-1.5396

>  <r_i_glide_evdw>  (360) 
-24.6172

>  <r_i_glide_ecoul>  (360) 
-7.51447

>  <r_i_glide_erotb>  (360) 
0.611683

>  <r_i_glide_esite>  (360) 
-0.116855

>  <r_i_glide_emodel>  (360) 
-43.7706

>  <r_i_glide_energy>  (360) 
-32.1316

>  <r_i_glide_einternal>  (360) 
0.962552

>  <r_i_glide_intrahb_reward>  (360) 
-0

>  <i_i_glide_confnum>  (360) 
2

>  <i_i_glide_posenum>  (360) 
32

>  <r_i_glide_eff_state_penalty>  (360) 
0

>  <ligand_id>  (360) 
106

>  <original_smiles>  (360) 
CN1CC2CC1CN2C(=S)NC(N)C(O)(Cl)Cl

>  <smiles>  (360) 
[H]N(C(=S)N1C([H])([H])C2([H])C([H])([H])C1([H])C([H])([H])[N+]2([H])C([H])([H])[H])C([H])(C([O-])(Cl)Cl)[N+]([H])([H])[H]

$$$$
106:1:2
     RDKit          3D

 34 35  0  0  1  0  0  0  0  0999 V2000
    2.5783   -6.0549    3.6984 C   0  0  0  0  0  0  0  0  0  0  0  0
    3.1415   -6.6781    2.4832 N   0  0  1  0  0  0  0  0  0  0  0  0
    2.6451   -6.1474    1.1873 C   0  0  0  0  0  0  0  0  0  0  0  0
    3.9404   -5.9458    0.3816 C   0  0  2  0  0  0  0  0  0  0  0  0
    4.8008   -7.0899    0.9154 C   0  0  0  0  0  0  0  0  0  0  0  0
    4.6216   -6.6486    2.3550 C   0  0  1  0  0  0  0  0  0  0  0  0
    5.1365   -5.1977    2.2548 C   0  0  0  0  0  0  0  0  0  0  0  0
    4.6222   -4.7779    0.9414 N   0  0  0  0  0  0  0  0  0  0  0  0
    4.8020   -3.5470    0.3683 C   0  0  0  0  0  0  0  0  0  0  0  0
    5.6046   -2.2922    1.1243 S   0  0  0  0  0  0  0  0  0  0  0  0
    4.2242   -3.4758   -0.8767 N   0  0  0  0  0  0  0  0  0  0  0  0
    4.1674   -2.2551   -1.7000 C   0  0  2  0  0  0  0  0  0  0  0  0
    3.4131   -1.1183   -1.1529 N   0  0  0  0  0  0  0  0  0  0  0  0
    3.6801   -2.5468   -3.1333 C   0  0  0  0  0  0  0  0  0  0  0  0
    2.4434   -2.9163   -3.0493 O   0  0  0  0  0  0  0  0  0  0  0  0
    3.7850   -1.0778   -4.1498 Cl  0  0  0  0  0  0  0  0  0  0  0  0
    4.6159   -3.8566   -3.8856 Cl  0  0  0  0  0  0  0  0  0  0  0  0
    2.6994   -4.9743    3.7053 H   0  0  0  0  0  0  0  0  0  0  0  0
    3.0506   -6.4544    4.5923 H   0  0  0  0  0  0  0  0  0  0  0  0
    1.5152   -6.2664    3.7705 H   0  0  0  0  0  0  0  0  0  0  0  0
    1.9758   -6.8669    0.7286 H   0  0  0  0  0  0  0  0  0  0  0  0
    2.0992   -5.2166    1.3043 H   0  0  0  0  0  0  0  0  0  0  0  0
    3.8264   -5.9448   -0.7022 H   0  0  0  0  0  0  0  0  0  0  0  0
    4.3925   -8.0800    0.6940 H   0  0  0  0  0  0  0  0  0  0  0  0
    5.8396   -7.0358    0.5827 H   0  0  0  0  0  0  0  0  0  0  0  0
    5.1396   -7.2607    3.0923 H   0  0  0  0  0  0  0  0  0  0  0  0
    4.7783   -4.5628    3.0662 H   0  0  0  0  0  0  0  0  0  0  0  0
    6.2275   -5.1709    2.2569 H   0  0  0  0  0  0  0  0  0  0  0  0
    3.7596   -4.2859   -1.2640 H   0  0  0  0  0  0  0  0  0  0  0  0
    5.1852   -1.9232   -1.8116 H   0  0  0  0  0  0  0  0  0  0  0  0
    3.4730   -0.3350   -1.7830 H   0  0  0  0  0  0  0  0  0  0  0  0
    3.7749   -0.8893   -0.2426 H   0  0  0  0  0  0  0  0  0  0  0  0
    2.8895   -7.6538    2.5131 H   0  0  0  0  0  0  0  0  0  0  0  0
    2.4199   -1.3484   -1.0897 H   0  0  0  0  0  0  0  0  0  0  0  0
  1  2  1  0
  1 18  1  0
  1 19  1  0
  1 20  1  0
  2  6  1  0
  2  3  1  0
  2 33  1  1
  3  4  1  0
  3 21  1  0
  3 22  1  0
  4  8  1  0
  4  5  1  0
  4 23  1  6
  5  6  1  0
  5 24  1  0
  5 25  1  0
  6  7  1  0
  6 26  1  1
  7  8  1  0
  7 27  1  0
  7 28  1  0
  8  9  1  0
  9 10  2  0
  9 11  1  0
 11 12  1  0
 11 29  1  0
 12 13  1  0
 12 14  1  0
 12 30  1  6
 13 31  1  0
 13 32  1  0
 13 34  1  0
 14 15  1  0
 14 16  1  0
 14 17  1  0
M  CHG  3   2   1  13   1  15  -1
M  END
>  <i_m_ct_stereo_status>  (361) 
1

>  <s_m_source_file>  (361) 
/var/tmp/pbs.5083858.sched01/tmpib8m30vq/150lsk850bn.sdf

>  <i_m_source_file_index>  (361) 
2

>  <i_lp_mmshare_version>  (361) 
48012

>  <i_f3d_flags>  (361) 
0

>  <s_epik_input>  (361) 
W0NAQEhdMTJbQ0gyXU4oW0NIM10pW0NAQEhdKFtDSDJdMSlbQ0gyXU4yQyg9UylbTkhdW0NASF0oW05IMl0pQyhDbCkoQ2wpW09IXQ==

>  <s_epik_cmdline>  (361) 
J2VwaWtfcHl0aG9uJywgJy1waHQnLCAnMi4wJywgJy1waCcsICc3LjAnLCAnLXRuJywgJzgnLCAnLW1hJywgJzIwMCcsICctaW1hZScsICc8aW5maWxlLm1hZT4nLCAnLW9tYWUnLCAnPG91dGZpbGUubWFlPic=

>  <r_epik_Ionization_Penalty>  (361) 
0.86419

>  <r_epik_Ionization_Penalty_Charging>  (361) 
0.864188

>  <r_epik_Ionization_Penalty_Neutral>  (361) 
2.0563e-06

>  <r_epik_State_Penalty>  (361) 
0.879531

>  <r_epik_Charging_Adjusted_Penalty>  (361) 
1.74372

>  <i_epik_Tot_Q>  (361) 
1

>  <i_epik_Tot_abs_Q>  (361) 
3

>  <s_epik_Chemistry_Notes>  (361) 
This compound contains an acetal/aminal-like group ( X-CH(R)-Y where X, Y are N, S, or O) that may be acid/base labile, releasing an aldehyde.

>  <s_lp_Force_Field>  (361) 
OPLS3e

>  <r_lp_Energy>  (361) 
28.8395

>  <b_lp_Chiralities_Consistent>  (361) 
1

>  <s_lp_Variant>  (361) 
106:0-2

>  <s_i_glide_gridfile>  (361) 
pfpi4k_grid

>  <i_i_glide_lignum>  (361) 
2

>  <i_i_glide_rotatable_bonds>  (361) 
4

>  <r_i_docking_score>  (361) 
-3.94778

>  <r_i_glide_ligand_efficiency>  (361) 
-0.232222

>  <r_i_glide_ligand_efficiency_sa>  (361) 
-0.597109

>  <r_i_glide_ligand_efficiency_ln>  (361) 
-1.02989

>  <r_i_glide_gscore>  (361) 
-3.94778

>  <r_i_glide_lipo>  (361) 
-0.354528

>  <r_i_glide_hbond>  (361) 
-0.224177

>  <r_i_glide_metal>  (361) 
-0

>  <r_i_glide_rewards>  (361) 
-1.56493

>  <r_i_glide_evdw>  (361) 
-26.2241

>  <r_i_glide_ecoul>  (361) 
-6.61464

>  <r_i_glide_erotb>  (361) 
0.611683

>  <r_i_glide_esite>  (361) 
-0.112427

>  <r_i_glide_emodel>  (361) 
-43.6702

>  <r_i_glide_energy>  (361) 
-32.8387

>  <r_i_glide_einternal>  (361) 
0.758788

>  <r_i_glide_intrahb_reward>  (361) 
-0

>  <i_i_glide_confnum>  (361) 
1

>  <i_i_glide_posenum>  (361) 
26

>  <r_i_glide_eff_state_penalty>  (361) 
0

>  <ligand_id>  (361) 
106

>  <original_smiles>  (361) 
CN1CC2CC1CN2C(=S)NC(N)C(O)(Cl)Cl

>  <smiles>  (361) 
[H]N(C(=S)N1C([H])([H])C2([H])C([H])([H])C1([H])C([H])([H])[N+]2([H])C([H])([H])[H])C([H])(C([O-])(Cl)Cl)[N+]([H])([H])[H]

$$$$
106:2:0
     RDKit          3D

 34 35  0  0  1  0  0  0  0  0999 V2000
    3.1624   -7.4013    3.7127 C   0  0  0  0  0  0  0  0  0  0  0  0
    4.1113   -7.6763    2.6094 N   0  0  1  0  0  0  0  0  0  0  0  0
    3.6058   -7.4082    1.2399 C   0  0  0  0  0  0  0  0  0  0  0  0
    4.7557   -6.6089    0.5958 C   0  0  2  0  0  0  0  0  0  0  0  0
    5.9620   -7.2521    1.2792 C   0  0  0  0  0  0  0  0  0  0  0  0
    5.4173   -6.9726    2.6661 C   0  0  1  0  0  0  0  0  0  0  0  0
    5.2207   -5.4449    2.5727 C   0  0  0  0  0  0  0  0  0  0  0  0
    4.7249   -5.2712    1.2022 N   0  0  0  0  0  0  0  0  0  0  0  0
    4.3698   -4.0801    0.6231 C   0  0  0  0  0  0  0  0  0  0  0  0
    4.4712   -2.6176    1.4307 S   0  0  0  0  0  0  0  0  0  0  0  0
    3.9279   -4.2540   -0.6558 N   0  0  0  0  0  0  0  0  0  0  0  0
    3.4895   -3.2214   -1.6103 C   0  0  2  0  0  0  0  0  0  0  0  0
    2.1524   -3.4548   -2.1848 N   0  0  0  0  0  0  0  0  0  0  0  0
    4.5560   -2.9740   -2.7171 C   0  0  0  0  0  0  0  0  0  0  0  0
    4.6155   -4.0921   -3.5784 O   0  0  0  0  0  0  0  0  0  0  0  0
    4.0686   -1.5077   -3.6920 Cl  0  0  0  0  0  0  0  0  0  0  0  0
    6.2081   -2.6540   -1.9801 Cl  0  0  0  0  0  0  0  0  0  0  0  0
    2.7805   -6.3803    3.6885 H   0  0  0  0  0  0  0  0  0  0  0  0
    3.6364   -7.5639    4.6821 H   0  0  0  0  0  0  0  0  0  0  0  0
    2.3047   -8.0737    3.6539 H   0  0  0  0  0  0  0  0  0  0  0  0
    3.4241   -8.3594    0.7405 H   0  0  0  0  0  0  0  0  0  0  0  0
    2.6722   -6.8441    1.2424 H   0  0  0  0  0  0  0  0  0  0  0  0
    4.7817   -6.6463   -0.4920 H   0  0  0  0  0  0  0  0  0  0  0  0
    6.0787   -8.3163    1.0608 H   0  0  0  0  0  0  0  0  0  0  0  0
    6.8992   -6.7347    1.0820 H   0  0  0  0  0  0  0  0  0  0  0  0
    6.0499   -7.2987    3.4927 H   0  0  0  0  0  0  0  0  0  0  0  0
    4.5159   -5.0627    3.3106 H   0  0  0  0  0  0  0  0  0  0  0  0
    6.1703   -4.9272    2.7068 H   0  0  0  0  0  0  0  0  0  0  0  0
    3.8760   -5.2062   -0.9972 H   0  0  0  0  0  0  0  0  0  0  0  0
    3.4126   -2.2692   -1.0860 H   0  0  0  0  0  0  0  0  0  0  0  0
    2.0947   -4.3519   -2.6787 H   0  0  0  0  0  0  0  0  0  0  0  0
    1.4429   -3.4845   -1.4558 H   0  0  0  0  0  0  0  0  0  0  0  0
    4.0277   -4.7664   -3.2485 H   0  0  0  0  0  0  0  0  0  0  0  0
    4.3125   -8.6664    2.6506 H   0  0  0  0  0  0  0  0  0  0  0  0
  1  2  1  0
  1 18  1  0
  1 19  1  0
  1 20  1  0
  2  6  1  0
  2  3  1  0
  2 34  1  6
  3  4  1  0
  3 21  1  0
  3 22  1  0
  4  8  1  0
  4  5  1  0
  4 23  1  6
  5  6  1  0
  5 24  1  0
  5 25  1  0
  6  7  1  0
  6 26  1  1
  7  8  1  0
  7 27  1  0
  7 28  1  0
  8  9  1  0
  9 10  2  0
  9 11  1  0
 11 12  1  0
 11 29  1  0
 12 13  1  0
 12 14  1  0
 12 30  1  1
 13 31  1  0
 13 32  1  0
 14 15  1  0
 14 16  1  0
 14 17  1  0
 15 33  1  0
M  CHG  1   2   1
M  END
>  <i_m_ct_stereo_status>  (362) 
1

>  <s_m_source_file>  (362) 
/var/tmp/pbs.5083858.sched01/tmpib8m30vq/150lsk850bn.sdf

>  <i_m_source_file_index>  (362) 
3

>  <i_lp_mmshare_version>  (362) 
48012

>  <i_f3d_flags>  (362) 
0

>  <s_epik_input>  (362) 
W0NAQEhdMTJbQ0gyXU4oW0NIM10pW0NAQEhdKFtDSDJdMSlbQ0gyXU4yQyg9UylbTkhdW0NASF0oW05IMl0pQyhDbCkoQ2wpW09IXQ==

>  <s_epik_cmdline>  (362) 
J2VwaWtfcHl0aG9uJywgJy1waHQnLCAnMi4wJywgJy1waCcsICc3LjAnLCAnLXRuJywgJzgnLCAnLW1hJywgJzIwMCcsICctaW1hZScsICc8aW5maWxlLm1hZT4nLCAnLW9tYWUnLCAnPG91dGZpbGUubWFlPic=

>  <r_epik_Ionization_Penalty>  (362) 
1.89223

>  <r_epik_Ionization_Penalty_Charging>  (362) 
0.0224409

>  <r_epik_Ionization_Penalty_Neutral>  (362) 
1.86979

>  <r_epik_State_Penalty>  (362) 
2.14691

>  <r_epik_Charging_Adjusted_Penalty>  (362) 
2.16935

>  <i_epik_Tot_Q>  (362) 
1

>  <i_epik_Tot_abs_Q>  (362) 
1

>  <s_epik_Chemistry_Notes>  (362) 
This compound contains an acetal/aminal-like group ( X-CH(R)-Y where X, Y are N, S, or O) that may be acid/base labile, releasing an aldehyde.

>  <s_lp_Force_Field>  (362) 
OPLS3e

>  <r_lp_Energy>  (362) 
28.2673

>  <b_lp_Chiralities_Consistent>  (362) 
1

>  <s_lp_Variant>  (362) 
106:0-3

>  <s_i_glide_gridfile>  (362) 
pfpi4k_grid

>  <i_i_glide_lignum>  (362) 
3

>  <i_i_glide_rotatable_bonds>  (362) 
5

>  <r_i_docking_score>  (362) 
-4.76344

>  <r_i_glide_ligand_efficiency>  (362) 
-0.280202

>  <r_i_glide_ligand_efficiency_sa>  (362) 
-0.720479

>  <r_i_glide_ligand_efficiency_ln>  (362) 
-1.24268

>  <r_i_glide_gscore>  (362) 
-4.76344

>  <r_i_glide_lipo>  (362) 
-0.577299

>  <r_i_glide_hbond>  (362) 
-0.72828

>  <r_i_glide_metal>  (362) 
-0

>  <r_i_glide_rewards>  (362) 
-1.51792

>  <r_i_glide_evdw>  (362) 
-21.3362

>  <r_i_glide_ecoul>  (362) 
-11.0425

>  <r_i_glide_erotb>  (362) 
0.815577

>  <r_i_glide_esite>  (362) 
-0.0323312

>  <r_i_glide_emodel>  (362) 
-39.6902

>  <r_i_glide_energy>  (362) 
-32.3787

>  <r_i_glide_einternal>  (362) 
7.25899

>  <r_i_glide_intrahb_reward>  (362) 
-0

>  <i_i_glide_confnum>  (362) 
3

>  <i_i_glide_posenum>  (362) 
1

>  <r_i_glide_eff_state_penalty>  (362) 
0

>  <ligand_id>  (362) 
106

>  <original_smiles>  (362) 
CN1CC2CC1CN2C(=S)NC(N)C(O)(Cl)Cl

>  <smiles>  (362) 
[H]OC(Cl)(Cl)C([H])(N([H])[H])N([H])C(=S)N1C([H])([H])C2([H])C([H])([H])C1([H])C([H])([H])[N+]2([H])C([H])([H])[H]

$$$$
106:2:1
     RDKit          3D

 34 35  0  0  1  0  0  0  0  0999 V2000
    3.1498   -7.7129    2.8755 C   0  0  0  0  0  0  0  0  0  0  0  0
    4.3319   -7.5456    1.9942 N   0  0  1  0  0  0  0  0  0  0  0  0
    4.0407   -7.1721    0.5889 C   0  0  0  0  0  0  0  0  0  0  0  0
    5.0110   -6.0069    0.3305 C   0  0  2  0  0  0  0  0  0  0  0  0
    6.2053   -6.4332    1.1903 C   0  0  0  0  0  0  0  0  0  0  0  0
    5.3510   -6.5594    2.4411 C   0  0  1  0  0  0  0  0  0  0  0  0
    4.7565   -5.1350    2.4909 C   0  0  0  0  0  0  0  0  0  0  0  0
    4.4782   -4.8572    1.0729 N   0  0  0  0  0  0  0  0  0  0  0  0
    3.9718   -3.6891    0.5721 C   0  0  0  0  0  0  0  0  0  0  0  0
    3.6529   -2.3563    1.5313 S   0  0  0  0  0  0  0  0  0  0  0  0
    3.7415   -3.7672   -0.7701 N   0  0  0  0  0  0  0  0  0  0  0  0
    3.2703   -2.6901   -1.6612 C   0  0  2  0  0  0  0  0  0  0  0  0
    2.1583   -3.0951   -2.5341 N   0  0  0  0  0  0  0  0  0  0  0  0
    4.4331   -2.1289   -2.5186 C   0  0  0  0  0  0  0  0  0  0  0  0
    5.4278   -1.5521   -1.6908 O   0  0  0  0  0  0  0  0  0  0  0  0
    5.1255   -3.4991   -3.4869 Cl  0  0  0  0  0  0  0  0  0  0  0  0
    3.8199   -0.8630   -3.6982 Cl  0  0  0  0  0  0  0  0  0  0  0  0
    2.5145   -6.8281    2.8872 H   0  0  0  0  0  0  0  0  0  0  0  0
    3.4709   -7.9268    3.8951 H   0  0  0  0  0  0  0  0  0  0  0  0
    2.5536   -8.5557    2.5280 H   0  0  0  0  0  0  0  0  0  0  0  0
    4.2340   -8.0196   -0.0682 H   0  0  0  0  0  0  0  0  0  0  0  0
    3.0090   -6.8513    0.4775 H   0  0  0  0  0  0  0  0  0  0  0  0
    5.2484   -5.8264   -0.7225 H   0  0  0  0  0  0  0  0  0  0  0  0
    6.6588   -7.3804    0.8859 H   0  0  0  0  0  0  0  0  0  0  0  0
    6.9819   -5.6681    1.2834 H   0  0  0  0  0  0  0  0  0  0  0  0
    5.8858   -6.8547    3.3428 H   0  0  0  0  0  0  0  0  0  0  0  0
    3.8507   -5.0704    3.0946 H   0  0  0  0  0  0  0  0  0  0  0  0
    5.4901   -4.4295    2.8826 H   0  0  0  0  0  0  0  0  0  0  0  0
    3.8898   -4.6734   -1.2025 H   0  0  0  0  0  0  0  0  0  0  0  0
    2.9140   -1.8489   -1.0709 H   0  0  0  0  0  0  0  0  0  0  0  0
    2.3722   -3.9272   -3.0865 H   0  0  0  0  0  0  0  0  0  0  0  0
    1.3247   -3.2954   -1.9880 H   0  0  0  0  0  0  0  0  0  0  0  0
    5.1047   -1.5719   -0.8037 H   0  0  0  0  0  0  0  0  0  0  0  0
    4.7989   -8.4447    1.9586 H   0  0  0  0  0  0  0  0  0  0  0  0
  1  2  1  0
  1 18  1  0
  1 19  1  0
  1 20  1  0
  2  6  1  0
  2  3  1  0
  2 34  1  6
  3  4  1  0
  3 21  1  0
  3 22  1  0
  4  8  1  0
  4  5  1  0
  4 23  1  6
  5  6  1  0
  5 24  1  0
  5 25  1  0
  6  7  1  0
  6 26  1  1
  7  8  1  0
  7 27  1  0
  7 28  1  0
  8  9  1  0
  9 10  2  0
  9 11  1  0
 11 12  1  0
 11 29  1  0
 12 13  1  0
 12 14  1  0
 12 30  1  1
 13 31  1  0
 13 32  1  0
 14 15  1  0
 14 16  1  0
 14 17  1  0
 15 33  1  0
M  CHG  1   2   1
M  END
>  <i_m_ct_stereo_status>  (363) 
1

>  <s_m_source_file>  (363) 
/var/tmp/pbs.5083858.sched01/tmpib8m30vq/150lsk850bn.sdf

>  <i_m_source_file_index>  (363) 
3

>  <i_lp_mmshare_version>  (363) 
48012

>  <i_f3d_flags>  (363) 
0

>  <s_epik_input>  (363) 
W0NAQEhdMTJbQ0gyXU4oW0NIM10pW0NAQEhdKFtDSDJdMSlbQ0gyXU4yQyg9UylbTkhdW0NASF0oW05IMl0pQyhDbCkoQ2wpW09IXQ==

>  <s_epik_cmdline>  (363) 
J2VwaWtfcHl0aG9uJywgJy1waHQnLCAnMi4wJywgJy1waCcsICc3LjAnLCAnLXRuJywgJzgnLCAnLW1hJywgJzIwMCcsICctaW1hZScsICc8aW5maWxlLm1hZT4nLCAnLW9tYWUnLCAnPG91dGZpbGUubWFlPic=

>  <r_epik_Ionization_Penalty>  (363) 
1.89223

>  <r_epik_Ionization_Penalty_Charging>  (363) 
0.0224409

>  <r_epik_Ionization_Penalty_Neutral>  (363) 
1.86979

>  <r_epik_State_Penalty>  (363) 
2.14691

>  <r_epik_Charging_Adjusted_Penalty>  (363) 
2.16935

>  <i_epik_Tot_Q>  (363) 
1

>  <i_epik_Tot_abs_Q>  (363) 
1

>  <s_epik_Chemistry_Notes>  (363) 
This compound contains an acetal/aminal-like group ( X-CH(R)-Y where X, Y are N, S, or O) that may be acid/base labile, releasing an aldehyde.

>  <s_lp_Force_Field>  (363) 
OPLS3e

>  <r_lp_Energy>  (363) 
28.2673

>  <b_lp_Chiralities_Consistent>  (363) 
1

>  <s_lp_Variant>  (363) 
106:0-3

>  <s_i_glide_gridfile>  (363) 
pfpi4k_grid

>  <i_i_glide_lignum>  (363) 
3

>  <i_i_glide_rotatable_bonds>  (363) 
5

>  <r_i_docking_score>  (363) 
-3.87756

>  <r_i_glide_ligand_efficiency>  (363) 
-0.228092

>  <r_i_glide_ligand_efficiency_sa>  (363) 
-0.586488

>  <r_i_glide_ligand_efficiency_ln>  (363) 
-1.01157

>  <r_i_glide_gscore>  (363) 
-3.87756

>  <r_i_glide_lipo>  (363) 
-0.898995

>  <r_i_glide_hbond>  (363) 
-0.236305

>  <r_i_glide_metal>  (363) 
-0

>  <r_i_glide_rewards>  (363) 
-1.4288

>  <r_i_glide_evdw>  (363) 
-23.364

>  <r_i_glide_ecoul>  (363) 
-6.11469

>  <r_i_glide_erotb>  (363) 
0.815577

>  <r_i_glide_esite>  (363) 
-0.0436322

>  <r_i_glide_emodel>  (363) 
-37.6957

>  <r_i_glide_energy>  (363) 
-29.4787

>  <r_i_glide_einternal>  (363) 
1.12869

>  <r_i_glide_intrahb_reward>  (363) 
-0

>  <i_i_glide_confnum>  (363) 
4

>  <i_i_glide_posenum>  (363) 
13

>  <r_i_glide_eff_state_penalty>  (363) 
0

>  <ligand_id>  (363) 
106

>  <original_smiles>  (363) 
CN1CC2CC1CN2C(=S)NC(N)C(O)(Cl)Cl

>  <smiles>  (363) 
[H]OC(Cl)(Cl)C([H])(N([H])[H])N([H])C(=S)N1C([H])([H])C2([H])C([H])([H])C1([H])C([H])([H])[N+]2([H])C([H])([H])[H]

$$$$
106:2:2
     RDKit          3D

 34 35  0  0  1  0  0  0  0  0999 V2000
    2.4357   -6.2513    3.8116 C   0  0  0  0  0  0  0  0  0  0  0  0
    3.2125   -6.8012    2.6752 N   0  0  1  0  0  0  0  0  0  0  0  0
    2.6494   -6.5340    1.3171 C   0  0  0  0  0  0  0  0  0  0  0  0
    3.8668   -6.0095    0.5296 C   0  0  2  0  0  0  0  0  0  0  0  0
    5.0197   -6.8164    1.1762 C   0  0  0  0  0  0  0  0  0  0  0  0
    4.6384   -6.3445    2.5812 C   0  0  1  0  0  0  0  0  0  0  0  0
    4.7248   -4.8231    2.3705 C   0  0  0  0  0  0  0  0  0  0  0  0
    4.1439   -4.6278    1.0205 N   0  0  0  0  0  0  0  0  0  0  0  0
    3.8671   -3.4405    0.4292 C   0  0  0  0  0  0  0  0  0  0  0  0
    4.0865   -1.9355    1.1516 S   0  0  0  0  0  0  0  0  0  0  0  0
    3.4147   -3.5947   -0.8467 N   0  0  0  0  0  0  0  0  0  0  0  0
    3.1248   -2.5655   -1.8497 C   0  0  2  0  0  0  0  0  0  0  0  0
    2.2126   -3.0660   -2.9112 N   0  0  0  0  0  0  0  0  0  0  0  0
    4.4106   -2.0049   -2.5470 C   0  0  0  0  0  0  0  0  0  0  0  0
    5.1711   -1.1727   -1.6724 O   0  0  0  0  0  0  0  0  0  0  0  0
    5.4310   -3.3990   -3.1051 Cl  0  0  0  0  0  0  0  0  0  0  0  0
    3.9422   -1.0215   -4.0463 Cl  0  0  0  0  0  0  0  0  0  0  0  0
    2.2454   -5.1866    3.7119 H   0  0  0  0  0  0  0  0  0  0  0  0
    2.9736   -6.4441    4.7486 H   0  0  0  0  0  0  0  0  0  0  0  0
    1.4800   -6.7814    3.8496 H   0  0  0  0  0  0  0  0  0  0  0  0
    2.2644   -7.4828    0.9276 H   0  0  0  0  0  0  0  0  0  0  0  0
    1.8538   -5.8014    1.3304 H   0  0  0  0  0  0  0  0  0  0  0  0
    3.8252   -6.1203   -0.5606 H   0  0  0  0  0  0  0  0  0  0  0  0
    4.9266   -7.8959    1.0345 H   0  0  0  0  0  0  0  0  0  0  0  0
    6.0219   -6.4747    0.8669 H   0  0  0  0  0  0  0  0  0  0  0  0
    5.2872   -6.7141    3.3862 H   0  0  0  0  0  0  0  0  0  0  0  0
    4.1469   -4.2667    3.1250 H   0  0  0  0  0  0  0  0  0  0  0  0
    5.7585   -4.4710    2.3828 H   0  0  0  0  0  0  0  0  0  0  0  0
    3.2478   -4.5474   -1.1341 H   0  0  0  0  0  0  0  0  0  0  0  0
    2.6475   -1.7293   -1.3528 H   0  0  0  0  0  0  0  0  0  0  0  0
    2.5952   -3.8824   -3.3895 H   0  0  0  0  0  0  0  0  0  0  0  0
    1.2980   -3.3278   -2.5653 H   0  0  0  0  0  0  0  0  0  0  0  0
    4.7885   -1.1865   -0.8224 H   0  0  0  0  0  0  0  0  0  0  0  0
    3.2691   -7.7977    2.7735 H   0  0  0  0  0  0  0  0  0  0  0  0
  1  2  1  0
  1 18  1  0
  1 19  1  0
  1 20  1  0
  2  6  1  0
  2  3  1  0
  2 34  1  1
  3  4  1  0
  3 21  1  0
  3 22  1  0
  4  8  1  0
  4  5  1  0
  4 23  1  6
  5  6  1  0
  5 24  1  0
  5 25  1  0
  6  7  1  0
  6 26  1  1
  7  8  1  0
  7 27  1  0
  7 28  1  0
  8  9  1  0
  9 10  2  0
  9 11  1  0
 11 12  1  0
 11 29  1  0
 12 13  1  0
 12 14  1  0
 12 30  1  1
 13 31  1  0
 13 32  1  0
 14 15  1  0
 14 16  1  0
 14 17  1  0
 15 33  1  0
M  CHG  1   2   1
M  END
>  <i_m_ct_stereo_status>  (364) 
1

>  <s_m_source_file>  (364) 
/var/tmp/pbs.5083858.sched01/tmpib8m30vq/150lsk850bn.sdf

>  <i_m_source_file_index>  (364) 
3

>  <i_lp_mmshare_version>  (364) 
48012

>  <i_f3d_flags>  (364) 
0

>  <s_epik_input>  (364) 
W0NAQEhdMTJbQ0gyXU4oW0NIM10pW0NAQEhdKFtDSDJdMSlbQ0gyXU4yQyg9UylbTkhdW0NASF0oW05IMl0pQyhDbCkoQ2wpW09IXQ==

>  <s_epik_cmdline>  (364) 
J2VwaWtfcHl0aG9uJywgJy1waHQnLCAnMi4wJywgJy1waCcsICc3LjAnLCAnLXRuJywgJzgnLCAnLW1hJywgJzIwMCcsICctaW1hZScsICc8aW5maWxlLm1hZT4nLCAnLW9tYWUnLCAnPG91dGZpbGUubWFlPic=

>  <r_epik_Ionization_Penalty>  (364) 
1.89223

>  <r_epik_Ionization_Penalty_Charging>  (364) 
0.0224409

>  <r_epik_Ionization_Penalty_Neutral>  (364) 
1.86979

>  <r_epik_State_Penalty>  (364) 
2.14691

>  <r_epik_Charging_Adjusted_Penalty>  (364) 
2.16935

>  <i_epik_Tot_Q>  (364) 
1

>  <i_epik_Tot_abs_Q>  (364) 
1

>  <s_epik_Chemistry_Notes>  (364) 
This compound contains an acetal/aminal-like group ( X-CH(R)-Y where X, Y are N, S, or O) that may be acid/base labile, releasing an aldehyde.

>  <s_lp_Force_Field>  (364) 
OPLS3e

>  <r_lp_Energy>  (364) 
28.2673

>  <b_lp_Chiralities_Consistent>  (364) 
1

>  <s_lp_Variant>  (364) 
106:0-3

>  <s_i_glide_gridfile>  (364) 
pfpi4k_grid

>  <i_i_glide_lignum>  (364) 
3

>  <i_i_glide_rotatable_bonds>  (364) 
5

>  <r_i_docking_score>  (364) 
-3.65192

>  <r_i_glide_ligand_efficiency>  (364) 
-0.214819

>  <r_i_glide_ligand_efficiency_sa>  (364) 
-0.552359

>  <r_i_glide_ligand_efficiency_ln>  (364) 
-0.952704

>  <r_i_glide_gscore>  (364) 
-3.65192

>  <r_i_glide_lipo>  (364) 
-0.512517

>  <r_i_glide_hbond>  (364) 
-0.267846

>  <r_i_glide_metal>  (364) 
-0

>  <r_i_glide_rewards>  (364) 
-1.40579

>  <r_i_glide_evdw>  (364) 
-23.7362

>  <r_i_glide_ecoul>  (364) 
-6.96013

>  <r_i_glide_erotb>  (364) 
0.815577

>  <r_i_glide_esite>  (364) 
-0.0505136

>  <r_i_glide_emodel>  (364) 
-37.771

>  <r_i_glide_energy>  (364) 
-30.6963

>  <r_i_glide_einternal>  (364) 
0.890228

>  <r_i_glide_intrahb_reward>  (364) 
-0

>  <i_i_glide_confnum>  (364) 
4

>  <i_i_glide_posenum>  (364) 
27

>  <r_i_glide_eff_state_penalty>  (364) 
0

>  <ligand_id>  (364) 
106

>  <original_smiles>  (364) 
CN1CC2CC1CN2C(=S)NC(N)C(O)(Cl)Cl

>  <smiles>  (364) 
[H]OC(Cl)(Cl)C([H])(N([H])[H])N([H])C(=S)N1C([H])([H])C2([H])C([H])([H])C1([H])C([H])([H])[N+]2([H])C([H])([H])[H]

$$$$
106:3:0
     RDKit          3D

 32 33  0  0  1  0  0  0  0  0999 V2000
    2.7846   -2.9107   -3.5819 C   0  0  0  0  0  0  0  0  0  0  0  0
    4.1736   -2.6050   -3.2434 N   0  0  0  0  0  0  0  0  0  0  0  0
    4.2961   -1.4020   -2.4034 C   0  0  0  0  0  0  0  0  0  0  0  0
    5.1897   -1.8898   -1.2433 C   0  0  2  0  0  0  0  0  0  0  0  0
    6.0620   -2.9114   -1.9491 C   0  0  0  0  0  0  0  0  0  0  0  0
    4.8532   -3.6701   -2.4785 C   0  0  1  0  0  0  0  0  0  0  0  0
    4.1488   -3.9865   -1.1436 C   0  0  0  0  0  0  0  0  0  0  0  0
    4.3296   -2.7536   -0.3871 N   0  0  0  0  0  0  0  0  0  0  0  0
    3.7631   -2.4596    0.8198 C   0  0  0  0  0  0  0  0  0  0  0  0
    2.8633   -3.5797    1.7000 S   0  0  0  0  0  0  0  0  0  0  0  0
    3.9870   -1.1866    1.2129 N   0  0  0  0  0  0  0  0  0  0  0  0
    3.4176   -0.4822    2.3837 C   0  0  2  0  0  0  0  0  0  0  0  0
    3.0231    0.8814    2.0676 N   0  0  0  0  0  0  0  0  0  0  0  0
    4.3555   -0.4469    3.6284 C   0  0  0  0  0  0  0  0  0  0  0  0
    5.5099    0.1586    3.3477 O   0  0  0  0  0  0  0  0  0  0  0  0
    3.5871    0.4484    4.9788 Cl  0  0  0  0  0  0  0  0  0  0  0  0
    4.7662   -2.0940    4.2003 Cl  0  0  0  0  0  0  0  0  0  0  0  0
    2.3799   -2.1166   -4.2116 H   0  0  0  0  0  0  0  0  0  0  0  0
    2.1403   -2.9924   -2.6994 H   0  0  0  0  0  0  0  0  0  0  0  0
    2.7236   -3.8530   -4.1369 H   0  0  0  0  0  0  0  0  0  0  0  0
    4.7944   -0.6212   -2.9735 H   0  0  0  0  0  0  0  0  0  0  0  0
    3.3374   -1.0138   -2.0580 H   0  0  0  0  0  0  0  0  0  0  0  0
    5.7315   -1.1124   -0.7116 H   0  0  0  0  0  0  0  0  0  0  0  0
    6.6970   -2.4932   -2.7326 H   0  0  0  0  0  0  0  0  0  0  0  0
    6.6702   -3.4957   -1.2611 H   0  0  0  0  0  0  0  0  0  0  0  0
    5.0737   -4.5680   -3.0670 H   0  0  0  0  0  0  0  0  0  0  0  0
    3.0944   -4.2366   -1.2601 H   0  0  0  0  0  0  0  0  0  0  0  0
    4.6506   -4.8063   -0.6233 H   0  0  0  0  0  0  0  0  0  0  0  0
    4.5148   -0.6225    0.5665 H   0  0  0  0  0  0  0  0  0  0  0  0
    2.4848   -0.9786    2.6435 H   0  0  0  0  0  0  0  0  0  0  0  0
    2.2976    1.1801    2.7013 H   0  0  0  0  0  0  0  0  0  0  0  0
    3.8114    1.4813    2.2590 H   0  0  0  0  0  0  0  0  0  0  0  0
  1  2  1  0
  1 18  1  0
  1 19  1  0
  1 20  1  0
  2  6  1  0
  2  3  1  0
  3  4  1  0
  3 21  1  0
  3 22  1  0
  4  8  1  0
  4  5  1  0
  4 23  1  1
  5  6  1  0
  5 24  1  0
  5 25  1  0
  6  7  1  0
  6 26  1  6
  7  8  1  0
  7 27  1  0
  7 28  1  0
  8  9  1  0
  9 10  2  0
  9 11  1  0
 11 12  1  0
 11 29  1  0
 12 13  1  0
 12 14  1  0
 12 30  1  1
 13 31  1  0
 13 32  1  0
 14 15  1  0
 14 16  1  0
 14 17  1  0
M  CHG  1  15  -1
M  END
>  <i_m_ct_stereo_status>  (365) 
1

>  <s_m_source_file>  (365) 
/var/tmp/pbs.5083858.sched01/tmpib8m30vq/150lsk850bn.sdf

>  <i_m_source_file_index>  (365) 
4

>  <i_lp_mmshare_version>  (365) 
48012

>  <i_f3d_flags>  (365) 
0

>  <s_epik_input>  (365) 
W0NAQEhdMTJbQ0gyXU4oW0NIM10pW0NAQEhdKFtDSDJdMSlbQ0gyXU4yQyg9UylbTkhdW0NASF0oW05IMl0pQyhDbCkoQ2wpW09IXQ==

>  <s_epik_cmdline>  (365) 
J2VwaWtfcHl0aG9uJywgJy1waHQnLCAnMi4wJywgJy1waCcsICc3LjAnLCAnLXRuJywgJzgnLCAnLW1hJywgJzIwMCcsICctaW1hZScsICc8aW5maWxlLm1hZT4nLCAnLW9tYWUnLCAnPG91dGZpbGUubWFlPic=

>  <r_epik_Ionization_Penalty>  (365) 
2.31074

>  <r_epik_Ionization_Penalty_Charging>  (365) 
0.0321631

>  <r_epik_Ionization_Penalty_Neutral>  (365) 
2.27858

>  <r_epik_State_Penalty>  (365) 
2.37286

>  <r_epik_Charging_Adjusted_Penalty>  (365) 
2.40503

>  <i_epik_Tot_Q>  (365) 
-1

>  <i_epik_Tot_abs_Q>  (365) 
1

>  <s_epik_Chemistry_Notes>  (365) 
This compound contains an acetal/aminal-like group ( X-CH(R)-Y where X, Y are N, S, or O) that may be acid/base labile, releasing an aldehyde.

>  <s_lp_Force_Field>  (365) 
OPLS3e

>  <r_lp_Energy>  (365) 
37.7585

>  <b_lp_Chiralities_Consistent>  (365) 
1

>  <s_lp_Variant>  (365) 
106:0-4

>  <s_i_glide_gridfile>  (365) 
pfpi4k_grid

>  <i_i_glide_lignum>  (365) 
4

>  <i_i_glide_rotatable_bonds>  (365) 
4

>  <r_i_docking_score>  (365) 
-3.11441

>  <r_i_glide_ligand_efficiency>  (365) 
-0.183201

>  <r_i_glide_ligand_efficiency_sa>  (365) 
-0.471061

>  <r_i_glide_ligand_efficiency_ln>  (365) 
-0.812481

>  <r_i_glide_gscore>  (365) 
-3.11441

>  <r_i_glide_lipo>  (365) 
-0.413479

>  <r_i_glide_hbond>  (365) 
-0.349014

>  <r_i_glide_metal>  (365) 
-0

>  <r_i_glide_rewards>  (365) 
-1.37776

>  <r_i_glide_evdw>  (365) 
-22.4642

>  <r_i_glide_ecoul>  (365) 
-2.93108

>  <r_i_glide_erotb>  (365) 
0.618935

>  <r_i_glide_esite>  (365) 
-0.0302242

>  <r_i_glide_emodel>  (365) 
-29.8617

>  <r_i_glide_energy>  (365) 
-25.3953

>  <r_i_glide_einternal>  (365) 
2.74125

>  <r_i_glide_intrahb_reward>  (365) 
-0

>  <i_i_glide_confnum>  (365) 
1

>  <i_i_glide_posenum>  (365) 
3

>  <r_i_glide_eff_state_penalty>  (365) 
0

>  <ligand_id>  (365) 
106

>  <original_smiles>  (365) 
CN1CC2CC1CN2C(=S)NC(N)C(O)(Cl)Cl

>  <smiles>  (365) 
[H]N([H])C([H])(N([H])C(=S)N1C([H])([H])C2([H])N(C([H])([H])[H])C([H])([H])C1([H])C2([H])[H])C([O-])(Cl)Cl

$$$$
106:3:1
     RDKit          3D

 32 33  0  0  1  0  0  0  0  0999 V2000
    2.2920   -3.0003   -3.4786 C   0  0  0  0  0  0  0  0  0  0  0  0
    3.6807   -2.6054   -3.2353 N   0  0  0  0  0  0  0  0  0  0  0  0
    3.7831   -1.3765   -2.4239 C   0  0  0  0  0  0  0  0  0  0  0  0
    4.7423   -1.7982   -1.2932 C   0  0  2  0  0  0  0  0  0  0  0  0
    5.6465   -2.7658   -2.0429 C   0  0  0  0  0  0  0  0  0  0  0  0
    4.4612   -3.6149   -2.4936 C   0  0  1  0  0  0  0  0  0  0  0  0
    3.8509   -3.9413   -1.1108 C   0  0  0  0  0  0  0  0  0  0  0  0
    3.9852   -2.6746   -0.3862 N   0  0  0  0  0  0  0  0  0  0  0  0
    3.4588   -2.4583    0.8610 C   0  0  0  0  0  0  0  0  0  0  0  0
    2.7169   -3.6476    1.7595 S   0  0  0  0  0  0  0  0  0  0  0  0
    3.5868   -1.1263    1.2181 N   0  0  0  0  0  0  0  0  0  0  0  0
    2.9802   -0.3939    2.3536 C   0  0  2  0  0  0  0  0  0  0  0  0
    2.8521    1.0209    2.0745 N   0  0  0  0  0  0  0  0  0  0  0  0
    3.7250   -0.5238    3.7208 C   0  0  0  0  0  0  0  0  0  0  0  0
    3.6212   -1.7536    4.1967 O   0  0  0  0  0  0  0  0  0  0  0  0
    5.4462   -0.1664    3.5648 Cl  0  0  0  0  0  0  0  0  0  0  0  0
    2.9981    0.5587    4.9691 Cl  0  0  0  0  0  0  0  0  0  0  0  0
    1.8067   -2.2474   -4.1020 H   0  0  0  0  0  0  0  0  0  0  0  0
    1.7022   -3.0942   -2.5596 H   0  0  0  0  0  0  0  0  0  0  0  0
    2.2470   -3.9571   -4.0072 H   0  0  0  0  0  0  0  0  0  0  0  0
    4.2043   -0.5830   -3.0411 H   0  0  0  0  0  0  0  0  0  0  0  0
    2.8219   -1.0346   -2.0342 H   0  0  0  0  0  0  0  0  0  0  0  0
    5.2741   -0.9743   -0.8129 H   0  0  0  0  0  0  0  0  0  0  0  0
    6.2128   -2.3419   -2.8720 H   0  0  0  0  0  0  0  0  0  0  0  0
    6.3229   -3.3140   -1.3780 H   0  0  0  0  0  0  0  0  0  0  0  0
    4.7138   -4.5135   -3.0814 H   0  0  0  0  0  0  0  0  0  0  0  0
    2.8201   -4.2675   -1.1774 H   0  0  0  0  0  0  0  0  0  0  0  0
    4.4434   -4.7160   -0.6177 H   0  0  0  0  0  0  0  0  0  0  0  0
    3.9710   -0.5409    0.4995 H   0  0  0  0  0  0  0  0  0  0  0  0
    1.9486   -0.7544    2.4361 H   0  0  0  0  0  0  0  0  0  0  0  0
    2.0846    1.4031    2.5986 H   0  0  0  0  0  0  0  0  0  0  0  0
    3.6732    1.5048    2.4021 H   0  0  0  0  0  0  0  0  0  0  0  0
  1  2  1  0
  1 18  1  0
  1 19  1  0
  1 20  1  0
  2  6  1  0
  2  3  1  0
  3  4  1  0
  3 21  1  0
  3 22  1  0
  4  8  1  0
  4  5  1  0
  4 23  1  1
  5  6  1  0
  5 24  1  0
  5 25  1  0
  6  7  1  0
  6 26  1  6
  7  8  1  0
  7 27  1  0
  7 28  1  0
  8  9  1  0
  9 10  2  0
  9 11  1  0
 11 12  1  0
 11 29  1  0
 12 13  1  0
 12 14  1  0
 12 30  1  1
 13 31  1  0
 13 32  1  0
 14 15  1  0
 14 16  1  0
 14 17  1  0
M  CHG  1  15  -1
M  END
>  <i_m_ct_stereo_status>  (366) 
1

>  <s_m_source_file>  (366) 
/var/tmp/pbs.5083858.sched01/tmpib8m30vq/150lsk850bn.sdf

>  <i_m_source_file_index>  (366) 
4

>  <i_lp_mmshare_version>  (366) 
48012

>  <i_f3d_flags>  (366) 
0

>  <s_epik_input>  (366) 
W0NAQEhdMTJbQ0gyXU4oW0NIM10pW0NAQEhdKFtDSDJdMSlbQ0gyXU4yQyg9UylbTkhdW0NASF0oW05IMl0pQyhDbCkoQ2wpW09IXQ==

>  <s_epik_cmdline>  (366) 
J2VwaWtfcHl0aG9uJywgJy1waHQnLCAnMi4wJywgJy1waCcsICc3LjAnLCAnLXRuJywgJzgnLCAnLW1hJywgJzIwMCcsICctaW1hZScsICc8aW5maWxlLm1hZT4nLCAnLW9tYWUnLCAnPG91dGZpbGUubWFlPic=

>  <r_epik_Ionization_Penalty>  (366) 
2.31074

>  <r_epik_Ionization_Penalty_Charging>  (366) 
0.0321631

>  <r_epik_Ionization_Penalty_Neutral>  (366) 
2.27858

>  <r_epik_State_Penalty>  (366) 
2.37286

>  <r_epik_Charging_Adjusted_Penalty>  (366) 
2.40503

>  <i_epik_Tot_Q>  (366) 
-1

>  <i_epik_Tot_abs_Q>  (366) 
1

>  <s_epik_Chemistry_Notes>  (366) 
This compound contains an acetal/aminal-like group ( X-CH(R)-Y where X, Y are N, S, or O) that may be acid/base labile, releasing an aldehyde.

>  <s_lp_Force_Field>  (366) 
OPLS3e

>  <r_lp_Energy>  (366) 
37.7585

>  <b_lp_Chiralities_Consistent>  (366) 
1

>  <s_lp_Variant>  (366) 
106:0-4

>  <s_i_glide_gridfile>  (366) 
pfpi4k_grid

>  <i_i_glide_lignum>  (366) 
4

>  <i_i_glide_rotatable_bonds>  (366) 
4

>  <r_i_docking_score>  (366) 
-2.94845

>  <r_i_glide_ligand_efficiency>  (366) 
-0.173438

>  <r_i_glide_ligand_efficiency_sa>  (366) 
-0.445958

>  <r_i_glide_ligand_efficiency_ln>  (366) 
-0.769185

>  <r_i_glide_gscore>  (366) 
-2.94845

>  <r_i_glide_lipo>  (366) 
-0.409564

>  <r_i_glide_hbond>  (366) 
-0.21322

>  <r_i_glide_metal>  (366) 
-0

>  <r_i_glide_rewards>  (366) 
-1.37582

>  <r_i_glide_evdw>  (366) 
-22.0026

>  <r_i_glide_ecoul>  (366) 
-2.6225

>  <r_i_glide_erotb>  (366) 
0.618935

>  <r_i_glide_esite>  (366) 
-0.0752726

>  <r_i_glide_emodel>  (366) 
-27.7493

>  <r_i_glide_energy>  (366) 
-24.6251

>  <r_i_glide_einternal>  (366) 
3.11156

>  <r_i_glide_intrahb_reward>  (366) 
-0

>  <i_i_glide_confnum>  (366) 
5

>  <i_i_glide_posenum>  (366) 
26

>  <r_i_glide_eff_state_penalty>  (366) 
0

>  <ligand_id>  (366) 
106

>  <original_smiles>  (366) 
CN1CC2CC1CN2C(=S)NC(N)C(O)(Cl)Cl

>  <smiles>  (366) 
[H]N([H])C([H])(N([H])C(=S)N1C([H])([H])C2([H])N(C([H])([H])[H])C([H])([H])C1([H])C2([H])[H])C([O-])(Cl)Cl

$$$$
106:3:2
     RDKit          3D

 32 33  0  0  1  0  0  0  0  0999 V2000
    2.7921   -3.2004   -3.3210 C   0  0  0  0  0  0  0  0  0  0  0  0
    3.9817   -2.4882   -2.8613 N   0  0  0  0  0  0  0  0  0  0  0  0
    3.6607   -1.3993   -1.9253 C   0  0  0  0  0  0  0  0  0  0  0  0
    4.6195   -1.6711   -0.7580 C   0  0  2  0  0  0  0  0  0  0  0  0
    5.8039   -2.2531   -1.5037 C   0  0  0  0  0  0  0  0  0  0  0  0
    4.9552   -3.3360   -2.1490 C   0  0  1  0  0  0  0  0  0  0  0  0
    4.3708   -3.9956   -0.8809 C   0  0  0  0  0  0  0  0  0  0  0  0
    4.0921   -2.8351   -0.0317 N   0  0  0  0  0  0  0  0  0  0  0  0
    3.4727   -2.8758    1.1810 C   0  0  0  0  0  0  0  0  0  0  0  0
    3.0232   -4.2990    1.9370 S   0  0  0  0  0  0  0  0  0  0  0  0
    3.2397   -1.6246    1.6674 N   0  0  0  0  0  0  0  0  0  0  0  0
    2.5712   -1.3114    2.9446 C   0  0  2  0  0  0  0  0  0  0  0  0
    1.1233   -1.3666    2.8955 N   0  0  0  0  0  0  0  0  0  0  0  0
    3.0196    0.0690    3.5100 C   0  0  0  0  0  0  0  0  0  0  0  0
    4.3217    0.0788    3.6132 O   0  0  0  0  0  0  0  0  0  0  0  0
    2.5208    1.3972    2.4355 Cl  0  0  0  0  0  0  0  0  0  0  0  0
    2.3459    0.3182    5.1495 Cl  0  0  0  0  0  0  0  0  0  0  0  0
    2.1508   -2.5309   -3.8992 H   0  0  0  0  0  0  0  0  0  0  0  0
    2.1919   -3.5933   -2.4958 H   0  0  0  0  0  0  0  0  0  0  0  0
    3.0721   -4.0381   -3.9650 H   0  0  0  0  0  0  0  0  0  0  0  0
    3.8825   -0.4418   -2.3977 H   0  0  0  0  0  0  0  0  0  0  0  0
    2.6173   -1.4020   -1.6184 H   0  0  0  0  0  0  0  0  0  0  0  0
    4.8661   -0.8080   -0.1433 H   0  0  0  0  0  0  0  0  0  0  0  0
    6.2445   -1.5645   -2.2241 H   0  0  0  0  0  0  0  0  0  0  0  0
    6.5765   -2.6589   -0.8433 H   0  0  0  0  0  0  0  0  0  0  0  0
    5.4979   -4.0248   -2.8067 H   0  0  0  0  0  0  0  0  0  0  0  0
    3.4902   -4.6006   -1.0895 H   0  0  0  0  0  0  0  0  0  0  0  0
    5.1208   -4.6379   -0.4081 H   0  0  0  0  0  0  0  0  0  0  0  0
    3.5451   -0.8351    1.1289 H   0  0  0  0  0  0  0  0  0  0  0  0
    2.9033   -2.0486    3.6805 H   0  0  0  0  0  0  0  0  0  0  0  0
    0.7740   -1.5333    3.8275 H   0  0  0  0  0  0  0  0  0  0  0  0
    0.8039   -0.4427    2.6392 H   0  0  0  0  0  0  0  0  0  0  0  0
  1  2  1  0
  1 18  1  0
  1 19  1  0
  1 20  1  0
  2  6  1  0
  2  3  1  0
  3  4  1  0
  3 21  1  0
  3 22  1  0
  4  8  1  0
  4  5  1  0
  4 23  1  1
  5  6  1  0
  5 24  1  0
  5 25  1  0
  6  7  1  0
  6 26  1  6
  7  8  1  0
  7 27  1  0
  7 28  1  0
  8  9  1  0
  9 10  2  0
  9 11  1  0
 11 12  1  0
 11 29  1  0
 12 13  1  0
 12 14  1  0
 12 30  1  1
 13 31  1  0
 13 32  1  0
 14 15  1  0
 14 16  1  0
 14 17  1  0
M  CHG  1  15  -1
M  END
>  <i_m_ct_stereo_status>  (367) 
1

>  <s_m_source_file>  (367) 
/var/tmp/pbs.5083858.sched01/tmpib8m30vq/150lsk850bn.sdf

>  <i_m_source_file_index>  (367) 
4

>  <i_lp_mmshare_version>  (367) 
48012

>  <i_f3d_flags>  (367) 
0

>  <s_epik_input>  (367) 
W0NAQEhdMTJbQ0gyXU4oW0NIM10pW0NAQEhdKFtDSDJdMSlbQ0gyXU4yQyg9UylbTkhdW0NASF0oW05IMl0pQyhDbCkoQ2wpW09IXQ==

>  <s_epik_cmdline>  (367) 
J2VwaWtfcHl0aG9uJywgJy1waHQnLCAnMi4wJywgJy1waCcsICc3LjAnLCAnLXRuJywgJzgnLCAnLW1hJywgJzIwMCcsICctaW1hZScsICc8aW5maWxlLm1hZT4nLCAnLW9tYWUnLCAnPG91dGZpbGUubWFlPic=

>  <r_epik_Ionization_Penalty>  (367) 
2.31074

>  <r_epik_Ionization_Penalty_Charging>  (367) 
0.0321631

>  <r_epik_Ionization_Penalty_Neutral>  (367) 
2.27858

>  <r_epik_State_Penalty>  (367) 
2.37286

>  <r_epik_Charging_Adjusted_Penalty>  (367) 
2.40503

>  <i_epik_Tot_Q>  (367) 
-1

>  <i_epik_Tot_abs_Q>  (367) 
1

>  <s_epik_Chemistry_Notes>  (367) 
This compound contains an acetal/aminal-like group ( X-CH(R)-Y where X, Y are N, S, or O) that may be acid/base labile, releasing an aldehyde.

>  <s_lp_Force_Field>  (367) 
OPLS3e

>  <r_lp_Energy>  (367) 
37.7585

>  <b_lp_Chiralities_Consistent>  (367) 
1

>  <s_lp_Variant>  (367) 
106:0-4

>  <s_i_glide_gridfile>  (367) 
pfpi4k_grid

>  <i_i_glide_lignum>  (367) 
4

>  <i_i_glide_rotatable_bonds>  (367) 
4

>  <r_i_docking_score>  (367) 
-2.07384

>  <r_i_glide_ligand_efficiency>  (367) 
-0.12199

>  <r_i_glide_ligand_efficiency_sa>  (367) 
-0.313672

>  <r_i_glide_ligand_efficiency_ln>  (367) 
-0.541018

>  <r_i_glide_gscore>  (367) 
-2.07384

>  <r_i_glide_lipo>  (367) 
-0.292643

>  <r_i_glide_hbond>  (367) 
0

>  <r_i_glide_metal>  (367) 
-0

>  <r_i_glide_rewards>  (367) 
-1.37582

>  <r_i_glide_evdw>  (367) 
-21.8048

>  <r_i_glide_ecoul>  (367) 
0.697095

>  <r_i_glide_erotb>  (367) 
0.618935

>  <r_i_glide_esite>  (367) 
-0.0386344

>  <r_i_glide_emodel>  (367) 
-25.2289

>  <r_i_glide_energy>  (367) 
-21.1077

>  <r_i_glide_einternal>  (367) 
0.155014

>  <r_i_glide_intrahb_reward>  (367) 
-0

>  <i_i_glide_confnum>  (367) 
3

>  <i_i_glide_posenum>  (367) 
29

>  <r_i_glide_eff_state_penalty>  (367) 
0

>  <ligand_id>  (367) 
106

>  <original_smiles>  (367) 
CN1CC2CC1CN2C(=S)NC(N)C(O)(Cl)Cl

>  <smiles>  (367) 
[H]N([H])C([H])(N([H])C(=S)N1C([H])([H])C2([H])N(C([H])([H])[H])C([H])([H])C1([H])C2([H])[H])C([O-])(Cl)Cl

$$$$
107:0:0
     RDKit          3D

 64 70  0  0  1  0  0  0  0  0999 V2000
    2.4978    5.0272    3.6772 C   0  0  0  0  0  0  0  0  0  0  0  0
    1.3871    3.9452    3.7814 C   0  0  1  0  0  0  0  0  0  0  0  0
    0.2625    4.6491    3.3264 O   0  0  0  0  0  0  0  0  0  0  0  0
    1.7796    2.7179    2.9211 C   0  0  0  0  0  0  0  0  0  0  0  0
    1.3139    1.2832    3.4248 C   0  0  1  0  0  0  0  0  0  0  0  0
    1.3200    0.4722    2.0855 C   0  0  0  0  0  0  0  0  0  0  0  0
    2.3302    0.5771    4.4621 C   0  0  2  0  0  0  0  0  0  0  0  0
    3.8294    0.7384    4.0721 C   0  0  0  0  0  0  0  0  0  0  0  0
    2.0146   -0.9620    4.7144 C   0  0  0  0  0  0  0  0  0  0  0  0
    1.3757   -1.4290    6.0326 C   0  0  2  0  0  0  0  0  0  0  0  0
    0.4047   -2.5538    6.0050 C   0  0  0  0  0  0  0  0  0  0  0  0
   -0.3045   -1.7817    7.0522 O   0  0  0  0  0  0  0  0  0  0  0  0
    0.6678   -0.7328    7.1172 C   0  0  1  0  0  0  0  0  0  0  0  0
    2.0320   -1.1630    7.2747 O   0  0  0  0  0  0  0  0  0  0  0  0
    0.3563    0.7029    7.6029 C   0  0  1  0  0  0  0  0  0  0  0  0
    1.5118    1.1427    8.2959 O   0  0  0  0  0  0  0  0  0  0  0  0
    2.0757    2.3316    7.8595 C   0  0  2  0  0  0  0  0  0  0  0  0
    3.1849    2.6448    8.8725 C   0  0  0  0  0  0  0  0  0  0  0  0
    1.1658    3.3922    7.9180 O   0  0  0  0  0  0  0  0  0  0  0  0
   -0.2156    3.0506    7.7534 C   0  0  0  0  0  0  0  0  0  0  0  0
   -0.4228    1.8429    6.7917 C   0  0  2  0  0  0  0  0  0  0  0  0
   -1.9508    1.5297    6.8832 C   0  0  0  0  0  0  0  0  0  0  0  0
   -0.0709    2.3729    5.3076 C   0  0  1  0  0  0  0  0  0  0  0  0
    1.0696    3.5026    5.2027 C   0  0  1  0  0  0  0  0  0  0  0  0
    2.3905    3.2812    5.6646 O   0  0  0  0  0  0  0  0  0  0  0  0
    2.6856    2.1776    6.4015 C   0  0  2  0  0  0  0  0  0  0  0  0
    2.2038    1.0229    5.8008 O   0  0  0  0  0  0  0  0  0  0  0  0
   -0.1425    1.4404    4.0100 C   0  0  0  0  0  0  0  0  0  0  0  0
   -1.1181    2.0106    2.9207 C   0  0  0  0  0  0  0  0  0  0  0  0
   -0.9025    0.1074    4.2539 C   0  0  0  0  0  0  0  0  0  0  0  0
    3.4754    4.6590    3.9780 H   0  0  0  0  0  0  0  0  0  0  0  0
    2.2627    5.8903    4.2977 H   0  0  0  0  0  0  0  0  0  0  0  0
    2.5944    5.3734    2.6465 H   0  0  0  0  0  0  0  0  0  0  0  0
    0.2330    4.5637    2.3417 H   0  0  0  0  0  0  0  0  0  0  0  0
    1.4349    2.9079    1.9040 H   0  0  0  0  0  0  0  0  0  0  0  0
    2.8493    2.7207    2.7784 H   0  0  0  0  0  0  0  0  0  0  0  0
    0.9193   -0.5368    2.1379 H   0  0  0  0  0  0  0  0  0  0  0  0
    2.3188    0.3925    1.6614 H   0  0  0  0  0  0  0  0  0  0  0  0
    0.7189    0.9600    1.3147 H   0  0  0  0  0  0  0  0  0  0  0  0
    4.0365    0.3822    3.0626 H   0  0  0  0  0  0  0  0  0  0  0  0
    4.4875    0.1974    4.7514 H   0  0  0  0  0  0  0  0  0  0  0  0
    4.1545    1.7791    4.1180 H   0  0  0  0  0  0  0  0  0  0  0  0
    1.5225   -1.4624    3.8836 H   0  0  0  0  0  0  0  0  0  0  0  0
    2.9864   -1.4634    4.7399 H   0  0  0  0  0  0  0  0  0  0  0  0
   -0.1750   -2.6752    5.0825 H   0  0  0  0  0  0  0  0  0  0  0  0
    0.7755   -3.5146    6.3510 H   0  0  0  0  0  0  0  0  0  0  0  0
   -0.2813    0.5235    8.4612 H   0  0  0  0  0  0  0  0  0  0  0  0
    2.7456    2.7186    9.8695 H   0  0  0  0  0  0  0  0  0  0  0  0
    3.6743    3.5875    8.6196 H   0  0  0  0  0  0  0  0  0  0  0  0
    3.9207    1.8367    8.8810 H   0  0  0  0  0  0  0  0  0  0  0  0
   -0.6125    2.8198    8.7385 H   0  0  0  0  0  0  0  0  0  0  0  0
   -0.7695    3.9249    7.4075 H   0  0  0  0  0  0  0  0  0  0  0  0
   -2.5593    2.2879    6.3893 H   0  0  0  0  0  0  0  0  0  0  0  0
   -2.2775    1.5082    7.9180 H   0  0  0  0  0  0  0  0  0  0  0  0
   -2.2278    0.5665    6.4672 H   0  0  0  0  0  0  0  0  0  0  0  0
   -0.9289    3.0179    5.1340 H   0  0  0  0  0  0  0  0  0  0  0  0
    0.7144    4.3872    5.7185 H   0  0  0  0  0  0  0  0  0  0  0  0
    3.7730    2.0821    6.4410 H   0  0  0  0  0  0  0  0  0  0  0  0
   -2.0191    2.4416    3.3537 H   0  0  0  0  0  0  0  0  0  0  0  0
   -1.4537    1.2387    2.2232 H   0  0  0  0  0  0  0  0  0  0  0  0
   -0.6969    2.7575    2.2632 H   0  0  0  0  0  0  0  0  0  0  0  0
   -1.9842    0.2179    4.1743 H   0  0  0  0  0  0  0  0  0  0  0  0
   -0.7430   -0.2967    5.2209 H   0  0  0  0  0  0  0  0  0  0  0  0
   -0.6343   -0.6704    3.5434 H   0  0  0  0  0  0  0  0  0  0  0  0
  1  2  1  0
  1 31  1  0
  1 32  1  0
  1 33  1  0
  2 24  1  0
  2  3  1  6
  2  4  1  0
  3 34  1  0
  4  5  1  0
  4 35  1  0
  4 36  1  0
  5 28  1  0
  5  6  1  6
  5  7  1  0
  6 37  1  0
  6 38  1  0
  6 39  1  0
  7 27  1  0
  7  8  1  6
  7  9  1  0
  8 40  1  0
  8 41  1  0
  8 42  1  0
  9 10  1  0
  9 43  1  0
  9 44  1  0
 10 13  1  0
 10 14  1  1
 10 11  1  0
 11 12  1  0
 11 45  1  0
 11 46  1  0
 13 12  1  1
 13 14  1  0
 13 15  1  0
 15 21  1  0
 15 16  1  0
 15 47  1  1
 16 17  1  0
 17 26  1  0
 17 18  1  1
 17 19  1  0
 18 48  1  0
 18 49  1  0
 18 50  1  0
 19 20  1  0
 20 21  1  0
 20 51  1  0
 20 52  1  0
 21 22  1  6
 21 23  1  0
 22 53  1  0
 22 54  1  0
 22 55  1  0
 23 24  1  0
 23 28  1  0
 23 56  1  6
 24 25  1  0
 24 57  1  1
 25 26  1  0
 26 27  1  0
 26 58  1  1
 28 29  1  0
 28 30  1  0
 29 59  1  0
 29 60  1  0
 29 61  1  0
 30 62  1  0
 30 63  1  0
 30 64  1  0
M  END
>  <i_m_ct_stereo_status>  (368) 
1

>  <s_m_source_file>  (368) 
/var/tmp/pbs.5083858.sched01/tmpib8m30vq/150lsk850bn.sdf

>  <i_m_source_file_index>  (368) 
5

>  <i_lp_mmshare_version>  (368) 
48012

>  <i_f3d_flags>  (368) 
0

>  <s_epik_input>  (368) 
W0NIMl0xT1tDQF0oW0NAQF0xMjMpKE8zKVtDQEBIXTRbQ0BdNShbQ0gzXSlbQ0BIXTZbQ0BASF03W0NAXShbQ0gzXSkoW09IXSlbQ0gyXVtDQF0oW0NIM10pKEM2KFtDSDNdKVtDSDNdKVtDQF0oW0NIM10pKFtDSDJdMilPW0NAQEhdKE83KVtDQEBdKE80KShbQ0gzXSlPW0NIMl01

>  <s_epik_cmdline>  (368) 
J2VwaWtfcHl0aG9uJywgJy1waHQnLCAnMi4wJywgJy1waCcsICc3LjAnLCAnLXRuJywgJzgnLCAnLW1hJywgJzIwMCcsICctaW1hZScsICc8aW5maWxlLm1hZT4nLCAnLW9tYWUnLCAnPG91dGZpbGUubWFlPic=

>  <r_lp_tautomer_probability>  (368) 
1

>  <r_epik_Ionization_Penalty>  (368) 
3.4328e-08

>  <r_epik_Ionization_Penalty_Charging>  (368) 
0

>  <r_epik_Ionization_Penalty_Neutral>  (368) 
3.4328e-08

>  <r_epik_State_Penalty>  (368) 
-0

>  <r_epik_Charging_Adjusted_Penalty>  (368) 
0

>  <i_epik_Tot_Q>  (368) 
0

>  <i_epik_Tot_abs_Q>  (368) 
0

>  <s_epik_Chemistry_Notes>  (368) 
This compound contains an acetal/aminal-like group ( X-CH(R)-Y where X, Y are N, S, or O) that may be acid/base labile, releasing an aldehyde.

>  <s_lp_Force_Field>  (368) 
OPLS3e

>  <r_lp_Energy>  (368) 
149.562

>  <b_lp_Chiralities_Consistent>  (368) 
1

>  <s_lp_Variant>  (368) 
107:0-1

>  <s_i_glide_gridfile>  (368) 
pfpi4k_grid

>  <i_i_glide_lignum>  (368) 
5

>  <i_i_glide_rotatable_bonds>  (368) 
1

>  <r_i_docking_score>  (368) 
-2.85526

>  <r_i_glide_ligand_efficiency>  (368) 
-0.0951754

>  <r_i_glide_ligand_efficiency_sa>  (368) 
-0.295732

>  <r_i_glide_ligand_efficiency_ln>  (368) 
-0.648746

>  <r_i_glide_gscore>  (368) 
-2.85526

>  <r_i_glide_lipo>  (368) 
0

>  <r_i_glide_hbond>  (368) 
-0.00458015

>  <r_i_glide_metal>  (368) 
-0

>  <r_i_glide_rewards>  (368) 
-0.528328

>  <r_i_glide_evdw>  (368) 
-21.4161

>  <r_i_glide_ecoul>  (368) 
-8.20732

>  <r_i_glide_erotb>  (368) 
0

>  <r_i_glide_esite>  (368) 
-0.0204495

>  <r_i_glide_emodel>  (368) 
-34.8841

>  <r_i_glide_energy>  (368) 
-29.6234

>  <r_i_glide_einternal>  (368) 
0.510987

>  <r_i_glide_intrahb_reward>  (368) 
-0

>  <i_i_glide_confnum>  (368) 
1

>  <i_i_glide_posenum>  (368) 
31

>  <r_i_glide_eff_state_penalty>  (368) 
0

>  <ligand_id>  (368) 
107

>  <original_smiles>  (368) 
CC1(O)CC2(C)C3(C)CC45COC4(O5)C4OC5(C)OCC4(C)C(C1OC5O3)C2(C)C

>  <smiles>  (368) 
[H]OC1(C([H])([H])[H])C([H])([H])C2(C([H])([H])[H])C3(C([H])([H])[H])OC4([H])OC1([H])C([H])(C1(C([H])([H])[H])C([H])([H])OC4(C([H])([H])[H])OC1([H])C14OC([H])([H])C1(O4)C3([H])[H])C2(C([H])([H])[H])C([H])([H])[H]

$$$$
107:0:1
     RDKit          3D

 64 70  0  0  1  0  0  0  0  0999 V2000
    1.8817    5.4407    3.7231 C   0  0  0  0  0  0  0  0  0  0  0  0
    0.9315    4.2352    3.8948 C   0  0  1  0  0  0  0  0  0  0  0  0
   -0.2526    4.6983    3.2916 O   0  0  0  0  0  0  0  0  0  0  0  0
    1.5414    2.9761    3.2373 C   0  0  0  0  0  0  0  0  0  0  0  0
    1.2447    1.5636    3.8698 C   0  0  1  0  0  0  0  0  0  0  0  0
    1.4291    0.6151    2.6434 C   0  0  0  0  0  0  0  0  0  0  0  0
    2.2801    1.1430    5.0334 C   0  0  2  0  0  0  0  0  0  0  0  0
    3.7656    1.4665    4.6861 C   0  0  0  0  0  0  0  0  0  0  0  0
    2.1600   -0.3854    5.4615 C   0  0  0  0  0  0  0  0  0  0  0  0
    1.5299   -0.7732    6.7876 C   0  0  2  0  0  0  0  0  0  0  0  0
    0.6994   -2.0307    6.8881 C   0  0  0  0  0  0  0  0  0  0  0  0
   -0.1499   -1.2528    7.7920 O   0  0  0  0  0  0  0  0  0  0  0  0
    0.6574   -0.0540    7.7494 C   0  0  1  0  0  0  0  0  0  0  0  0
    2.0465   -0.2904    8.0306 O   0  0  0  0  0  0  0  0  0  0  0  0
    0.1232    1.3517    8.0543 C   0  0  1  0  0  0  0  0  0  0  0  0
    1.1715    2.0306    8.7394 O   0  0  0  0  0  0  0  0  0  0  0  0
    1.6075    3.2215    8.1727 C   0  0  2  0  0  0  0  0  0  0  0  0
    2.5818    3.8005    9.1993 C   0  0  0  0  0  0  0  0  0  0  0  0
    0.5434    4.1400    8.0738 O   0  0  0  0  0  0  0  0  0  0  0  0
   -0.7646    3.5914    7.8910 C   0  0  0  0  0  0  0  0  0  0  0  0
   -0.7518    2.2676    7.0795 C   0  0  2  0  0  0  0  0  0  0  0  0
   -2.2173    1.7510    7.1490 C   0  0  0  0  0  0  0  0  0  0  0  0
   -0.3858    2.6677    5.5515 C   0  0  1  0  0  0  0  0  0  0  0  0
    0.5816    3.9190    5.3592 C   0  0  1  0  0  0  0  0  0  0  0  0
    1.8983    3.9488    5.9020 O   0  0  0  0  0  0  0  0  0  0  0  0
    2.2942    2.9820    6.7790 C   0  0  2  0  0  0  0  0  0  0  0  0
    2.0157    1.7175    6.3048 O   0  0  0  0  0  0  0  0  0  0  0  0
   -0.2638    1.5769    4.3807 C   0  0  0  0  0  0  0  0  0  0  0  0
   -1.2307    1.8857    3.1806 C   0  0  0  0  0  0  0  0  0  0  0  0
   -0.8472    0.1897    4.7445 C   0  0  0  0  0  0  0  0  0  0  0  0
    2.8830    5.2626    4.1054 H   0  0  0  0  0  0  0  0  0  0  0  0
    1.4982    6.3405    4.2144 H   0  0  0  0  0  0  0  0  0  0  0  0
    1.9934    5.6810    2.6593 H   0  0  0  0  0  0  0  0  0  0  0  0
   -0.1182    4.6166    2.3440 H   0  0  0  0  0  0  0  0  0  0  0  0
    1.2409    2.9766    2.1753 H   0  0  0  0  0  0  0  0  0  0  0  0
    2.5991    3.1278    3.1349 H   0  0  0  0  0  0  0  0  0  0  0  0
    1.1648   -0.4261    2.7998 H   0  0  0  0  0  0  0  0  0  0  0  0
    2.4619    0.6287    2.2716 H   0  0  0  0  0  0  0  0  0  0  0  0
    0.8209    0.9256    1.8006 H   0  0  0  0  0  0  0  0  0  0  0  0
    4.0837    1.0363    3.7415 H   0  0  0  0  0  0  0  0  0  0  0  0
    4.4561    1.1097    5.4566 H   0  0  0  0  0  0  0  0  0  0  0  0
    3.9435    2.5374    4.6177 H   0  0  0  0  0  0  0  0  0  0  0  0
    1.7965   -1.0533    4.6803 H   0  0  0  0  0  0  0  0  0  0  0  0
    3.1698   -0.7411    5.5983 H   0  0  0  0  0  0  0  0  0  0  0  0
    0.1960   -2.3672    5.9761 H   0  0  0  0  0  0  0  0  0  0  0  0
    1.1690   -2.8790    7.3569 H   0  0  0  0  0  0  0  0  0  0  0  0
   -0.5313    1.1808    8.9063 H   0  0  0  0  0  0  0  0  0  0  0  0
    2.0908    3.9267   10.1536 H   0  0  0  0  0  0  0  0  0  0  0  0
    2.9586    4.7672    8.8491 H   0  0  0  0  0  0  0  0  0  0  0  0
    3.4257    3.1118    9.3342 H   0  0  0  0  0  0  0  0  0  0  0  0
   -1.1859    3.4271    8.8848 H   0  0  0  0  0  0  0  0  0  0  0  0
   -1.4048    4.3339    7.4170 H   0  0  0  0  0  0  0  0  0  0  0  0
   -2.9016    2.3614    6.5455 H   0  0  0  0  0  0  0  0  0  0  0  0
   -2.5918    1.8048    8.1723 H   0  0  0  0  0  0  0  0  0  0  0  0
   -2.3403    0.7207    6.8358 H   0  0  0  0  0  0  0  0  0  0  0  0
   -1.3149    3.1531    5.2705 H   0  0  0  0  0  0  0  0  0  0  0  0
    0.0835    4.8088    5.7427 H   0  0  0  0  0  0  0  0  0  0  0  0
    3.3875    3.0585    6.8729 H   0  0  0  0  0  0  0  0  0  0  0  0
   -2.2015    2.2370    3.5237 H   0  0  0  0  0  0  0  0  0  0  0  0
   -1.4218    0.9985    2.5770 H   0  0  0  0  0  0  0  0  0  0  0  0
   -0.8745    2.5958    2.4506 H   0  0  0  0  0  0  0  0  0  0  0  0
   -1.9318    0.1485    4.6017 H   0  0  0  0  0  0  0  0  0  0  0  0
   -0.6860   -0.0670    5.7636 H   0  0  0  0  0  0  0  0  0  0  0  0
   -0.4444   -0.6203    4.1449 H   0  0  0  0  0  0  0  0  0  0  0  0
  1  2  1  0
  1 31  1  0
  1 32  1  0
  1 33  1  0
  2 24  1  0
  2  3  1  6
  2  4  1  0
  3 34  1  0
  4  5  1  0
  4 35  1  0
  4 36  1  0
  5 28  1  0
  5  6  1  6
  5  7  1  0
  6 37  1  0
  6 38  1  0
  6 39  1  0
  7 27  1  0
  7  8  1  6
  7  9  1  0
  8 40  1  0
  8 41  1  0
  8 42  1  0
  9 10  1  0
  9 43  1  0
  9 44  1  0
 10 13  1  0
 10 14  1  1
 10 11  1  0
 11 12  1  0
 11 45  1  0
 11 46  1  0
 13 12  1  1
 13 14  1  0
 13 15  1  0
 15 21  1  0
 15 16  1  0
 15 47  1  1
 16 17  1  0
 17 26  1  0
 17 18  1  1
 17 19  1  0
 18 48  1  0
 18 49  1  0
 18 50  1  0
 19 20  1  0
 20 21  1  0
 20 51  1  0
 20 52  1  0
 21 22  1  6
 21 23  1  0
 22 53  1  0
 22 54  1  0
 22 55  1  0
 23 24  1  0
 23 28  1  0
 23 56  1  6
 24 25  1  0
 24 57  1  1
 25 26  1  0
 26 27  1  0
 26 58  1  1
 28 29  1  0
 28 30  1  0
 29 59  1  0
 29 60  1  0
 29 61  1  0
 30 62  1  0
 30 63  1  0
 30 64  1  0
M  END
>  <i_m_ct_stereo_status>  (369) 
1

>  <s_m_source_file>  (369) 
/var/tmp/pbs.5083858.sched01/tmpib8m30vq/150lsk850bn.sdf

>  <i_m_source_file_index>  (369) 
5

>  <i_lp_mmshare_version>  (369) 
48012

>  <i_f3d_flags>  (369) 
0

>  <s_epik_input>  (369) 
W0NIMl0xT1tDQF0oW0NAQF0xMjMpKE8zKVtDQEBIXTRbQ0BdNShbQ0gzXSlbQ0BIXTZbQ0BASF03W0NAXShbQ0gzXSkoW09IXSlbQ0gyXVtDQF0oW0NIM10pKEM2KFtDSDNdKVtDSDNdKVtDQF0oW0NIM10pKFtDSDJdMilPW0NAQEhdKE83KVtDQEBdKE80KShbQ0gzXSlPW0NIMl01

>  <s_epik_cmdline>  (369) 
J2VwaWtfcHl0aG9uJywgJy1waHQnLCAnMi4wJywgJy1waCcsICc3LjAnLCAnLXRuJywgJzgnLCAnLW1hJywgJzIwMCcsICctaW1hZScsICc8aW5maWxlLm1hZT4nLCAnLW9tYWUnLCAnPG91dGZpbGUubWFlPic=

>  <r_lp_tautomer_probability>  (369) 
1

>  <r_epik_Ionization_Penalty>  (369) 
3.4328e-08

>  <r_epik_Ionization_Penalty_Charging>  (369) 
0

>  <r_epik_Ionization_Penalty_Neutral>  (369) 
3.4328e-08

>  <r_epik_State_Penalty>  (369) 
-0

>  <r_epik_Charging_Adjusted_Penalty>  (369) 
0

>  <i_epik_Tot_Q>  (369) 
0

>  <i_epik_Tot_abs_Q>  (369) 
0

>  <s_epik_Chemistry_Notes>  (369) 
This compound contains an acetal/aminal-like group ( X-CH(R)-Y where X, Y are N, S, or O) that may be acid/base labile, releasing an aldehyde.

>  <s_lp_Force_Field>  (369) 
OPLS3e

>  <r_lp_Energy>  (369) 
149.562

>  <b_lp_Chiralities_Consistent>  (369) 
1

>  <s_lp_Variant>  (369) 
107:0-1

>  <s_i_glide_gridfile>  (369) 
pfpi4k_grid

>  <i_i_glide_lignum>  (369) 
5

>  <i_i_glide_rotatable_bonds>  (369) 
1

>  <r_i_docking_score>  (369) 
-2.80381

>  <r_i_glide_ligand_efficiency>  (369) 
-0.0934603

>  <r_i_glide_ligand_efficiency_sa>  (369) 
-0.290403

>  <r_i_glide_ligand_efficiency_ln>  (369) 
-0.637056

>  <r_i_glide_gscore>  (369) 
-2.80381

>  <r_i_glide_lipo>  (369) 
0

>  <r_i_glide_hbond>  (369) 
-0.0457142

>  <r_i_glide_metal>  (369) 
-0

>  <r_i_glide_rewards>  (369) 
-0.528328

>  <r_i_glide_evdw>  (369) 
-20.1454

>  <r_i_glide_ecoul>  (369) 
-8.02088

>  <r_i_glide_erotb>  (369) 
0

>  <r_i_glide_esite>  (369) 
-0.0193647

>  <r_i_glide_emodel>  (369) 
-33.4509

>  <r_i_glide_energy>  (369) 
-28.1662

>  <r_i_glide_einternal>  (369) 
0.43923

>  <r_i_glide_intrahb_reward>  (369) 
-0

>  <i_i_glide_confnum>  (369) 
2

>  <i_i_glide_posenum>  (369) 
27

>  <r_i_glide_eff_state_penalty>  (369) 
0

>  <ligand_id>  (369) 
107

>  <original_smiles>  (369) 
CC1(O)CC2(C)C3(C)CC45COC4(O5)C4OC5(C)OCC4(C)C(C1OC5O3)C2(C)C

>  <smiles>  (369) 
[H]OC1(C([H])([H])[H])C([H])([H])C2(C([H])([H])[H])C3(C([H])([H])[H])OC4([H])OC1([H])C([H])(C1(C([H])([H])[H])C([H])([H])OC4(C([H])([H])[H])OC1([H])C14OC([H])([H])C1(O4)C3([H])[H])C2(C([H])([H])[H])C([H])([H])[H]

$$$$
107:0:2
     RDKit          3D

 64 70  0  0  1  0  0  0  0  0999 V2000
    4.3088    0.0036    6.8586 C   0  0  0  0  0  0  0  0  0  0  0  0
    3.6296    0.5877    5.5930 C   0  0  1  0  0  0  0  0  0  0  0  0
    4.7185    0.6233    4.6947 O   0  0  0  0  0  0  0  0  0  0  0  0
    2.4796   -0.3445    5.1308 C   0  0  0  0  0  0  0  0  0  0  0  0
    1.2098    0.3210    4.4472 C   0  0  1  0  0  0  0  0  0  0  0  0
    0.6591   -0.8692    3.5961 C   0  0  0  0  0  0  0  0  0  0  0  0
    0.0679    0.7892    5.4880 C   0  0  2  0  0  0  0  0  0  0  0  0
   -0.1854   -0.2421    6.6253 C   0  0  0  0  0  0  0  0  0  0  0  0
   -1.3145    1.1583    4.8018 C   0  0  0  0  0  0  0  0  0  0  0  0
   -1.7509    2.6277    4.6470 C   0  0  2  0  0  0  0  0  0  0  0  0
   -2.5026    3.0733    3.4527 C   0  0  0  0  0  0  0  0  0  0  0  0
   -1.7770    4.3522    3.6113 O   0  0  0  0  0  0  0  0  0  0  0  0
   -1.0532    3.9150    4.7556 C   0  0  1  0  0  0  0  0  0  0  0  0
   -1.9163    3.4299    5.8132 O   0  0  0  0  0  0  0  0  0  0  0  0
    0.3151    4.4891    5.2200 C   0  0  1  0  0  0  0  0  0  0  0  0
    0.2545    4.5788    6.6371 O   0  0  0  0  0  0  0  0  0  0  0  0
    1.2586    3.9300    7.3419 C   0  0  2  0  0  0  0  0  0  0  0  0
    1.0441    4.3213    8.8084 C   0  0  0  0  0  0  0  0  0  0  0  0
    2.5246    4.3920    6.9871 O   0  0  0  0  0  0  0  0  0  0  0  0
    2.6701    4.8709    5.6429 C   0  0  0  0  0  0  0  0  0  0  0  0
    1.7606    4.1211    4.6300 C   0  0  2  0  0  0  0  0  0  0  0  0
    1.9441    4.9073    3.2944 C   0  0  0  0  0  0  0  0  0  0  0  0
    2.3765    2.6242    4.4694 C   0  0  1  0  0  0  0  0  0  0  0  0
    3.0994    2.0090    5.7704 C   0  0  1  0  0  0  0  0  0  0  0  0
    2.4010    1.8296    6.9911 O   0  0  0  0  0  0  0  0  0  0  0  0
    1.1546    2.3530    7.1693 C   0  0  2  0  0  0  0  0  0  0  0  0
    0.3092    2.0388    6.1111 O   0  0  0  0  0  0  0  0  0  0  0  0
    1.7228    1.5019    3.5396 C   0  0  0  0  0  0  0  0  0  0  0  0
    2.7371    0.9566    2.4631 C   0  0  0  0  0  0  0  0  0  0  0  0
    0.6742    2.0696    2.5472 C   0  0  0  0  0  0  0  0  0  0  0  0
    3.6067   -0.1632    7.6745 H   0  0  0  0  0  0  0  0  0  0  0  0
    5.0900    0.6712    7.2183 H   0  0  0  0  0  0  0  0  0  0  0  0
    4.7664   -0.9569    6.6240 H   0  0  0  0  0  0  0  0  0  0  0  0
    4.4202    1.0596    3.9107 H   0  0  0  0  0  0  0  0  0  0  0  0
    2.9337   -1.0919    4.4723 H   0  0  0  0  0  0  0  0  0  0  0  0
    2.1745   -0.9646    5.9629 H   0  0  0  0  0  0  0  0  0  0  0  0
   -0.1638   -0.6206    2.9329 H   0  0  0  0  0  0  0  0  0  0  0  0
    0.3284   -1.6986    4.2192 H   0  0  0  0  0  0  0  0  0  0  0  0
    1.4274   -1.2828    2.9357 H   0  0  0  0  0  0  0  0  0  0  0  0
   -0.4338   -1.2305    6.2427 H   0  0  0  0  0  0  0  0  0  0  0  0
   -0.9980    0.0846    7.2718 H   0  0  0  0  0  0  0  0  0  0  0  0
    0.6768   -0.3471    7.2771 H   0  0  0  0  0  0  0  0  0  0  0  0
   -1.4981    0.6593    3.8446 H   0  0  0  0  0  0  0  0  0  0  0  0
   -2.1047    0.7448    5.4343 H   0  0  0  0  0  0  0  0  0  0  0  0
   -2.2638    2.5394    2.5288 H   0  0  0  0  0  0  0  0  0  0  0  0
   -3.5908    3.1707    3.5617 H   0  0  0  0  0  0  0  0  0  0  0  0
    0.2086    5.5501    4.9880 H   0  0  0  0  0  0  0  0  0  0  0  0
    1.0950    5.4116    8.8967 H   0  0  0  0  0  0  0  0  0  0  0  0
    1.8097    3.8724    9.4383 H   0  0  0  0  0  0  0  0  0  0  0  0
    0.0550    3.9986    9.1443 H   0  0  0  0  0  0  0  0  0  0  0  0
    2.4245    5.9304    5.6521 H   0  0  0  0  0  0  0  0  0  0  0  0
    3.7169    4.8160    5.3424 H   0  0  0  0  0  0  0  0  0  0  0  0
    2.9137    4.7385    2.8342 H   0  0  0  0  0  0  0  0  0  0  0  0
    1.8584    5.9794    3.4579 H   0  0  0  0  0  0  0  0  0  0  0  0
    1.1843    4.6760    2.5594 H   0  0  0  0  0  0  0  0  0  0  0  0
    3.2721    2.8706    3.9061 H   0  0  0  0  0  0  0  0  0  0  0  0
    3.9573    2.6268    6.0051 H   0  0  0  0  0  0  0  0  0  0  0  0
    0.7240    1.8973    8.0624 H   0  0  0  0  0  0  0  0  0  0  0  0
    3.3572    1.7522    2.0575 H   0  0  0  0  0  0  0  0  0  0  0  0
    2.2164    0.5173    1.6082 H   0  0  0  0  0  0  0  0  0  0  0  0
    3.3975    0.1594    2.7761 H   0  0  0  0  0  0  0  0  0  0  0  0
    1.1452    2.5027    1.6663 H   0  0  0  0  0  0  0  0  0  0  0  0
    0.0939    2.8683    2.9407 H   0  0  0  0  0  0  0  0  0  0  0  0
   -0.0192    1.3255    2.1609 H   0  0  0  0  0  0  0  0  0  0  0  0
  1  2  1  0
  1 31  1  0
  1 32  1  0
  1 33  1  0
  2 24  1  0
  2  3  1  6
  2  4  1  0
  3 34  1  0
  4  5  1  0
  4 35  1  0
  4 36  1  0
  5 28  1  0
  5  6  1  6
  5  7  1  0
  6 37  1  0
  6 38  1  0
  6 39  1  0
  7 27  1  0
  7  8  1  1
  7  9  1  0
  8 40  1  0
  8 41  1  0
  8 42  1  0
  9 10  1  0
  9 43  1  0
  9 44  1  0
 10 13  1  0
 10 14  1  1
 10 11  1  0
 11 12  1  0
 11 45  1  0
 11 46  1  0
 13 12  1  6
 13 14  1  0
 13 15  1  0
 15 21  1  0
 15 16  1  0
 15 47  1  6
 16 17  1  0
 17 26  1  0
 17 18  1  1
 17 19  1  0
 18 48  1  0
 18 49  1  0
 18 50  1  0
 19 20  1  0
 20 21  1  0
 20 51  1  0
 20 52  1  0
 21 22  1  6
 21 23  1  0
 22 53  1  0
 22 54  1  0
 22 55  1  0
 23 24  1  0
 23 28  1  0
 23 56  1  6
 24 25  1  0
 24 57  1  1
 25 26  1  0
 26 27  1  0
 26 58  1  1
 28 29  1  0
 28 30  1  0
 29 59  1  0
 29 60  1  0
 29 61  1  0
 30 62  1  0
 30 63  1  0
 30 64  1  0
M  END
>  <i_m_ct_stereo_status>  (370) 
1

>  <s_m_source_file>  (370) 
/var/tmp/pbs.5083858.sched01/tmpib8m30vq/150lsk850bn.sdf

>  <i_m_source_file_index>  (370) 
5

>  <i_lp_mmshare_version>  (370) 
48012

>  <i_f3d_flags>  (370) 
0

>  <s_epik_input>  (370) 
W0NIMl0xT1tDQF0oW0NAQF0xMjMpKE8zKVtDQEBIXTRbQ0BdNShbQ0gzXSlbQ0BIXTZbQ0BASF03W0NAXShbQ0gzXSkoW09IXSlbQ0gyXVtDQF0oW0NIM10pKEM2KFtDSDNdKVtDSDNdKVtDQF0oW0NIM10pKFtDSDJdMilPW0NAQEhdKE83KVtDQEBdKE80KShbQ0gzXSlPW0NIMl01

>  <s_epik_cmdline>  (370) 
J2VwaWtfcHl0aG9uJywgJy1waHQnLCAnMi4wJywgJy1waCcsICc3LjAnLCAnLXRuJywgJzgnLCAnLW1hJywgJzIwMCcsICctaW1hZScsICc8aW5maWxlLm1hZT4nLCAnLW9tYWUnLCAnPG91dGZpbGUubWFlPic=

>  <r_lp_tautomer_probability>  (370) 
1

>  <r_epik_Ionization_Penalty>  (370) 
3.4328e-08

>  <r_epik_Ionization_Penalty_Charging>  (370) 
0

>  <r_epik_Ionization_Penalty_Neutral>  (370) 
3.4328e-08

>  <r_epik_State_Penalty>  (370) 
-0

>  <r_epik_Charging_Adjusted_Penalty>  (370) 
0

>  <i_epik_Tot_Q>  (370) 
0

>  <i_epik_Tot_abs_Q>  (370) 
0

>  <s_epik_Chemistry_Notes>  (370) 
This compound contains an acetal/aminal-like group ( X-CH(R)-Y where X, Y are N, S, or O) that may be acid/base labile, releasing an aldehyde.

>  <s_lp_Force_Field>  (370) 
OPLS3e

>  <r_lp_Energy>  (370) 
149.562

>  <b_lp_Chiralities_Consistent>  (370) 
1

>  <s_lp_Variant>  (370) 
107:0-1

>  <s_i_glide_gridfile>  (370) 
pfpi4k_grid

>  <i_i_glide_lignum>  (370) 
5

>  <i_i_glide_rotatable_bonds>  (370) 
1

>  <r_i_docking_score>  (370) 
-2.57484

>  <r_i_glide_ligand_efficiency>  (370) 
-0.0858279

>  <r_i_glide_ligand_efficiency_sa>  (370) 
-0.266687

>  <r_i_glide_ligand_efficiency_ln>  (370) 
-0.585031

>  <r_i_glide_gscore>  (370) 
-2.57484

>  <r_i_glide_lipo>  (370) 
-0.0208268

>  <r_i_glide_hbond>  (370) 
-0.13179

>  <r_i_glide_metal>  (370) 
-0

>  <r_i_glide_rewards>  (370) 
-0.528328

>  <r_i_glide_evdw>  (370) 
-23.6819

>  <r_i_glide_ecoul>  (370) 
-4.46457

>  <r_i_glide_erotb>  (370) 
0

>  <r_i_glide_esite>  (370) 
-0.0401135

>  <r_i_glide_emodel>  (370) 
-33.3073

>  <r_i_glide_energy>  (370) 
-28.1464

>  <r_i_glide_einternal>  (370) 
0.0161067

>  <r_i_glide_intrahb_reward>  (370) 
-0

>  <i_i_glide_confnum>  (370) 
1

>  <i_i_glide_posenum>  (370) 
3

>  <r_i_glide_eff_state_penalty>  (370) 
0

>  <ligand_id>  (370) 
107

>  <original_smiles>  (370) 
CC1(O)CC2(C)C3(C)CC45COC4(O5)C4OC5(C)OCC4(C)C(C1OC5O3)C2(C)C

>  <smiles>  (370) 
[H]OC1(C([H])([H])[H])C([H])([H])C2(C([H])([H])[H])C3(C([H])([H])[H])OC4([H])OC1([H])C([H])(C1(C([H])([H])[H])C([H])([H])OC4(C([H])([H])[H])OC1([H])C14OC([H])([H])C1(O4)C3([H])[H])C2(C([H])([H])[H])C([H])([H])[H]

$$$$
108:0:0
     RDKit          3D

 40 44  0  0  1  0  0  0  0  0999 V2000
   -0.1266   -7.9220    4.6523 C   0  0  0  0  0  0  0  0  0  0  0  0
    0.4334   -6.9080    3.7298 C   0  0  0  0  0  0  0  0  0  0  0  0
    0.2840   -6.9996    2.4143 N   0  0  0  0  0  0  0  0  0  0  0  0
    1.0050   -5.8987    1.9317 O   0  0  0  0  0  0  0  0  0  0  0  0
    1.4647   -5.2387    3.0335 C   0  0  0  0  0  0  0  0  0  0  0  0
    2.2279   -4.0104    2.8692 C   0  0  0  0  0  0  0  0  0  0  0  0
    2.0402   -3.0989    3.8596 N   0  0  0  0  0  0  0  0  0  0  0  0
    2.7172   -1.9483    3.7773 C   0  0  0  0  0  0  0  0  0  0  0  0
    3.5912   -1.6153    2.7362 C   0  0  0  0  0  0  0  0  0  0  0  0
    3.7652   -2.5456    1.6763 C   0  0  0  0  0  0  0  0  0  0  0  0
    3.0743   -3.7884    1.7509 C   0  0  0  0  0  0  0  0  0  0  0  0
    3.1999   -4.7583    0.7539 O   0  0  0  0  0  0  0  0  0  0  0  0
    4.3190   -4.6098   -0.1512 C   0  0  0  0  0  0  0  0  0  0  0  0
    4.4505   -3.1520   -0.6735 C   0  0  1  0  0  0  0  0  0  0  0  0
    5.5692   -3.0849   -1.7739 C   0  0  0  0  0  0  0  0  0  0  0  0
    4.7995   -3.2635   -3.3887 S   0  0  0  0  0  0  0  0  0  0  0  0
    3.1786   -2.8765   -2.6833 C   0  0  0  0  0  0  0  0  0  0  0  0
    2.1460   -2.6621   -3.4884 N   0  0  0  0  0  0  0  0  0  0  0  0
    3.1829   -2.7881   -1.3467 N   0  0  0  0  0  0  0  0  0  0  0  0
    4.6829   -2.1810    0.5137 C   0  0  0  0  0  0  0  0  0  0  0  0
    6.1538   -1.9993    0.9363 C   0  0  0  0  0  0  0  0  0  0  0  0
    6.2450   -0.7880    0.1387 O   0  0  0  0  0  0  0  0  0  0  0  0
    4.7939   -0.6914    0.1241 C   0  0  0  0  0  0  0  0  0  0  0  0
    1.1100   -5.8177    4.1736 N   0  0  0  0  0  0  0  0  0  0  0  0
   -0.4314   -8.8226    4.1183 H   0  0  0  0  0  0  0  0  0  0  0  0
   -0.9967   -7.5142    5.1576 H   0  0  0  0  0  0  0  0  0  0  0  0
    0.6147   -8.1980    5.4039 H   0  0  0  0  0  0  0  0  0  0  0  0
    2.5709   -1.2352    4.5780 H   0  0  0  0  0  0  0  0  0  0  0  0
    4.1055   -0.6678    2.7662 H   0  0  0  0  0  0  0  0  0  0  0  0
    5.2470   -4.9443    0.3369 H   0  0  0  0  0  0  0  0  0  0  0  0
    4.1711   -5.2617   -1.0107 H   0  0  0  0  0  0  0  0  0  0  0  0
    6.0608   -2.1156   -1.7954 H   0  0  0  0  0  0  0  0  0  0  0  0
    6.3576   -3.8299   -1.6291 H   0  0  0  0  0  0  0  0  0  0  0  0
    1.2431   -2.4094   -3.1018 H   0  0  0  0  0  0  0  0  0  0  0  0
    2.3781   -2.4476   -0.8013 H   0  0  0  0  0  0  0  0  0  0  0  0
    6.2876   -1.8183    2.0166 H   0  0  0  0  0  0  0  0  0  0  0  0
    6.8084   -2.8038    0.5819 H   0  0  0  0  0  0  0  0  0  0  0  0
    4.3777   -0.4999   -0.8735 H   0  0  0  0  0  0  0  0  0  0  0  0
    4.4031    0.0223    0.8634 H   0  0  0  0  0  0  0  0  0  0  0  0
    2.2515   -2.7730   -4.4911 H   0  0  0  0  0  0  0  0  0  0  0  0
  1  2  1  0
  1 25  1  0
  1 26  1  0
  1 27  1  0
  2 24  1  0
  2  3  2  0
  3  4  1  0
  4  5  1  0
  5  6  1  0
  5 24  2  0
  6 11  1  0
  6  7  2  0
  7  8  1  0
  8  9  2  0
  8 28  1  0
  9 10  1  0
  9 29  1  0
 10 20  1  0
 10 11  2  0
 11 12  1  0
 12 13  1  0
 14 13  1  1
 13 30  1  0
 13 31  1  0
 14 19  1  0
 14 15  1  0
 14 20  1  0
 15 16  1  0
 15 32  1  0
 15 33  1  0
 16 17  1  0
 17 18  1  0
 17 19  2  0
 18 34  1  0
 18 40  1  0
 19 35  1  0
 20 23  1  0
 20 21  1  0
 21 22  1  0
 21 36  1  0
 21 37  1  0
 22 23  1  0
 23 38  1  0
 23 39  1  0
M  CHG  1  19   1
M  END
>  <i_m_ct_stereo_status>  (371) 
1

>  <s_m_source_file>  (371) 
/var/tmp/pbs.5083858.sched01/tmpomdzics0/155fiydj0oo.sdf

>  <i_m_source_file_index>  (371) 
1

>  <i_lp_mmshare_version>  (371) 
48012

>  <i_f3d_flags>  (371) 
0

>  <s_epik_input>  (371) 
W0NIM11jMW5vYyhuMSktYyhuW2NIXVtjSF0yKWMoT1tDSDJdMyljMkM0KFtDSDJdT1tDSDJdNClbQ0BAXTM1W0NIMl1TL0MoPU5cW0hdKVtOSF01

>  <s_epik_cmdline>  (371) 
J2VwaWtfcHl0aG9uJywgJy1waHQnLCAnMi4wJywgJy1waCcsICc3LjAnLCAnLXRuJywgJzgnLCAnLW1hJywgJzIwMCcsICctaW1hZScsICc8aW5maWxlLm1hZT4nLCAnLW9tYWUnLCAnPG91dGZpbGUubWFlPic=

>  <r_lp_tautomer_probability>  (371) 
1

>  <r_epik_Ionization_Penalty>  (371) 
0.168512

>  <r_epik_Ionization_Penalty_Charging>  (371) 
0.0510949

>  <r_epik_Ionization_Penalty_Neutral>  (371) 
0.117417

>  <r_epik_State_Penalty>  (371) 
0.206968

>  <r_epik_Charging_Adjusted_Penalty>  (371) 
0.258063

>  <i_epik_Tot_Q>  (371) 
1

>  <i_epik_Tot_abs_Q>  (371) 
1

>  <s_epik_Chemistry_Notes>  (371) 
This compound has an imine and may undergo hydrolysis.

>  <s_lp_Force_Field>  (371) 
OPLS3e

>  <r_lp_Energy>  (371) 
24.1216

>  <b_lp_Chiralities_Consistent>  (371) 
1

>  <s_lp_Variant>  (371) 
108:0-1

>  <s_i_glide_gridfile>  (371) 
pfpi4k_grid

>  <i_i_glide_lignum>  (371) 
1

>  <i_i_glide_rotatable_bonds>  (371) 
1

>  <r_i_docking_score>  (371) 
-3.82558

>  <r_i_glide_ligand_efficiency>  (371) 
-0.159399

>  <r_i_glide_ligand_efficiency_sa>  (371) 
-0.459786

>  <r_i_glide_ligand_efficiency_ln>  (371) 
-0.915636

>  <r_i_glide_gscore>  (371) 
-3.82558

>  <r_i_glide_lipo>  (371) 
-0.513394

>  <r_i_glide_hbond>  (371) 
-0.113663

>  <r_i_glide_metal>  (371) 
-0

>  <r_i_glide_rewards>  (371) 
-1.04737

>  <r_i_glide_evdw>  (371) 
-22.8322

>  <r_i_glide_ecoul>  (371) 
-6.14015

>  <r_i_glide_erotb>  (371) 
0.158452

>  <r_i_glide_esite>  (371) 
-0.246966

>  <r_i_glide_emodel>  (371) 
-36.7269

>  <r_i_glide_energy>  (371) 
-28.9723

>  <r_i_glide_einternal>  (371) 
2.42524

>  <r_i_glide_intrahb_reward>  (371) 
-0

>  <i_i_glide_confnum>  (371) 
5

>  <i_i_glide_posenum>  (371) 
38

>  <r_i_glide_eff_state_penalty>  (371) 
0

>  <ligand_id>  (371) 
108

>  <original_smiles>  (371) 
Cc1noc(-c2nccc3c2OCC2(CSC(=N)N2)C32COC2)n1

>  <smiles>  (371) 
[H]c1nc(-c2nc(C([H])([H])[H])no2)c2c(c1[H])C1(C([H])([H])OC1([H])[H])C1([N+]([H])=C(N([H])[H])SC1([H])[H])C([H])([H])O2

$$$$
108:0:1
     RDKit          3D

 40 44  0  0  1  0  0  0  0  0999 V2000
    8.9427   -5.3441    0.6557 C   0  0  0  0  0  0  0  0  0  0  0  0
    7.6601   -5.8988    1.1231 C   0  0  0  0  0  0  0  0  0  0  0  0
    7.4978   -7.2018    1.2859 N   0  0  0  0  0  0  0  0  0  0  0  0
    6.1699   -7.3137    1.7026 O   0  0  0  0  0  0  0  0  0  0  0  0
    5.6779   -6.0335    1.7461 C   0  0  0  0  0  0  0  0  0  0  0  0
    4.2863   -5.8065    2.1362 C   0  0  0  0  0  0  0  0  0  0  0  0
    3.9898   -4.4826    2.3499 N   0  0  0  0  0  0  0  0  0  0  0  0
    2.7425   -4.1768    2.7047 C   0  0  0  0  0  0  0  0  0  0  0  0
    1.7209   -5.1085    2.8940 C   0  0  0  0  0  0  0  0  0  0  0  0
    2.0222   -6.4913    2.7090 C   0  0  0  0  0  0  0  0  0  0  0  0
    3.3364   -6.8340    2.2997 C   0  0  0  0  0  0  0  0  0  0  0  0
    3.7022   -8.1627    2.0991 O   0  0  0  0  0  0  0  0  0  0  0  0
    2.6514   -9.1251    1.9641 C   0  0  0  0  0  0  0  0  0  0  0  0
    1.5628   -8.9484    3.0615 C   0  0  1  0  0  0  0  0  0  0  0  0
    0.5137  -10.1260    2.9650 C   0  0  0  0  0  0  0  0  0  0  0  0
    1.0419  -11.4267    4.0855 S   0  0  0  0  0  0  0  0  0  0  0  0
    2.1434  -10.2835    4.9493 C   0  0  0  0  0  0  0  0  0  0  0  0
    2.7012  -10.6638    6.0811 N   0  0  0  0  0  0  0  0  0  0  0  0
    2.2263   -9.1027    4.3597 N   0  0  0  0  0  0  0  0  0  0  0  0
    0.9308   -7.5280    2.9619 C   0  0  0  0  0  0  0  0  0  0  0  0
   -0.2532   -7.3969    1.9944 C   0  0  0  0  0  0  0  0  0  0  0  0
   -1.1984   -7.4915    3.0906 O   0  0  0  0  0  0  0  0  0  0  0  0
   -0.1350   -7.2048    4.0327 C   0  0  0  0  0  0  0  0  0  0  0  0
    6.5756   -5.1254    1.3962 N   0  0  0  0  0  0  0  0  0  0  0  0
    9.5695   -6.1516    0.2782 H   0  0  0  0  0  0  0  0  0  0  0  0
    9.4480   -4.8591    1.4888 H   0  0  0  0  0  0  0  0  0  0  0  0
    8.7635   -4.6229   -0.1425 H   0  0  0  0  0  0  0  0  0  0  0  0
    2.5165   -3.1270    2.8614 H   0  0  0  0  0  0  0  0  0  0  0  0
    0.7406   -4.7531    3.1825 H   0  0  0  0  0  0  0  0  0  0  0  0
    2.2224   -9.0807    0.9559 H   0  0  0  0  0  0  0  0  0  0  0  0
    3.1090  -10.1095    2.0906 H   0  0  0  0  0  0  0  0  0  0  0  0
   -0.4733   -9.8186    3.3062 H   0  0  0  0  0  0  0  0  0  0  0  0
    0.3936  -10.5086    1.9502 H   0  0  0  0  0  0  0  0  0  0  0  0
    3.2660  -10.0361    6.6686 H   0  0  0  0  0  0  0  0  0  0  0  0
    2.7409   -8.3163    4.7767 H   0  0  0  0  0  0  0  0  0  0  0  0
   -0.3041   -6.4270    1.4793 H   0  0  0  0  0  0  0  0  0  0  0  0
   -0.3168   -8.2381    1.2953 H   0  0  0  0  0  0  0  0  0  0  0  0
   -0.0882   -7.9086    4.8725 H   0  0  0  0  0  0  0  0  0  0  0  0
   -0.1662   -6.1668    4.3849 H   0  0  0  0  0  0  0  0  0  0  0  0
    2.3841  -11.5424    6.5185 H   0  0  0  0  0  0  0  0  0  0  0  0
  1  2  1  0
  1 25  1  0
  1 26  1  0
  1 27  1  0
  2 24  1  0
  2  3  2  0
  3  4  1  0
  4  5  1  0
  5  6  1  0
  5 24  2  0
  6 11  1  0
  6  7  2  0
  7  8  1  0
  8  9  2  0
  8 28  1  0
  9 10  1  0
  9 29  1  0
 10 20  1  0
 10 11  2  0
 11 12  1  0
 12 13  1  0
 14 13  1  6
 13 30  1  0
 13 31  1  0
 14 19  1  0
 14 15  1  0
 14 20  1  0
 15 16  1  0
 15 32  1  0
 15 33  1  0
 16 17  1  0
 17 18  1  0
 17 19  2  0
 18 34  1  0
 18 40  1  0
 19 35  1  0
 20 23  1  0
 20 21  1  0
 21 22  1  0
 21 36  1  0
 21 37  1  0
 22 23  1  0
 23 38  1  0
 23 39  1  0
M  CHG  1  19   1
M  END
>  <i_m_ct_stereo_status>  (372) 
1

>  <s_m_source_file>  (372) 
/var/tmp/pbs.5083858.sched01/tmpomdzics0/155fiydj0oo.sdf

>  <i_m_source_file_index>  (372) 
1

>  <i_lp_mmshare_version>  (372) 
48012

>  <i_f3d_flags>  (372) 
0

>  <s_epik_input>  (372) 
W0NIM11jMW5vYyhuMSktYyhuW2NIXVtjSF0yKWMoT1tDSDJdMyljMkM0KFtDSDJdT1tDSDJdNClbQ0BAXTM1W0NIMl1TL0MoPU5cW0hdKVtOSF01

>  <s_epik_cmdline>  (372) 
J2VwaWtfcHl0aG9uJywgJy1waHQnLCAnMi4wJywgJy1waCcsICc3LjAnLCAnLXRuJywgJzgnLCAnLW1hJywgJzIwMCcsICctaW1hZScsICc8aW5maWxlLm1hZT4nLCAnLW9tYWUnLCAnPG91dGZpbGUubWFlPic=

>  <r_lp_tautomer_probability>  (372) 
1

>  <r_epik_Ionization_Penalty>  (372) 
0.168512

>  <r_epik_Ionization_Penalty_Charging>  (372) 
0.0510949

>  <r_epik_Ionization_Penalty_Neutral>  (372) 
0.117417

>  <r_epik_State_Penalty>  (372) 
0.206968

>  <r_epik_Charging_Adjusted_Penalty>  (372) 
0.258063

>  <i_epik_Tot_Q>  (372) 
1

>  <i_epik_Tot_abs_Q>  (372) 
1

>  <s_epik_Chemistry_Notes>  (372) 
This compound has an imine and may undergo hydrolysis.

>  <s_lp_Force_Field>  (372) 
OPLS3e

>  <r_lp_Energy>  (372) 
24.1216

>  <b_lp_Chiralities_Consistent>  (372) 
1

>  <s_lp_Variant>  (372) 
108:0-1

>  <s_i_glide_gridfile>  (372) 
pfpi4k_grid

>  <i_i_glide_lignum>  (372) 
1

>  <i_i_glide_rotatable_bonds>  (372) 
1

>  <r_i_docking_score>  (372) 
-3.82023

>  <r_i_glide_ligand_efficiency>  (372) 
-0.159176

>  <r_i_glide_ligand_efficiency_sa>  (372) 
-0.459144

>  <r_i_glide_ligand_efficiency_ln>  (372) 
-0.914356

>  <r_i_glide_gscore>  (372) 
-3.82023

>  <r_i_glide_lipo>  (372) 
-0.272554

>  <r_i_glide_hbond>  (372) 
-0.204264

>  <r_i_glide_metal>  (372) 
-0

>  <r_i_glide_rewards>  (372) 
-1.0909

>  <r_i_glide_evdw>  (372) 
-24.0224

>  <r_i_glide_ecoul>  (372) 
-7.06161

>  <r_i_glide_erotb>  (372) 
0.158452

>  <r_i_glide_esite>  (372) 
-0.150599

>  <r_i_glide_emodel>  (372) 
-38.5171

>  <r_i_glide_energy>  (372) 
-31.084

>  <r_i_glide_einternal>  (372) 
2.39161

>  <r_i_glide_intrahb_reward>  (372) 
-0

>  <i_i_glide_confnum>  (372) 
6

>  <i_i_glide_posenum>  (372) 
8

>  <r_i_glide_eff_state_penalty>  (372) 
0

>  <ligand_id>  (372) 
108

>  <original_smiles>  (372) 
Cc1noc(-c2nccc3c2OCC2(CSC(=N)N2)C32COC2)n1

>  <smiles>  (372) 
[H]c1nc(-c2nc(C([H])([H])[H])no2)c2c(c1[H])C1(C([H])([H])OC1([H])[H])C1([N+]([H])=C(N([H])[H])SC1([H])[H])C([H])([H])O2

$$$$
108:0:2
     RDKit          3D

 40 44  0  0  1  0  0  0  0  0999 V2000
    0.0266   -8.0587    2.5830 C   0  0  0  0  0  0  0  0  0  0  0  0
    0.4781   -6.7484    3.1037 C   0  0  0  0  0  0  0  0  0  0  0  0
    0.1189   -6.2825    4.2920 N   0  0  0  0  0  0  0  0  0  0  0  0
    0.7565   -5.0322    4.3446 O   0  0  0  0  0  0  0  0  0  0  0  0
    1.4187   -4.8944    3.1656 C   0  0  0  0  0  0  0  0  0  0  0  0
    2.1933   -3.6748    2.9241 C   0  0  0  0  0  0  0  0  0  0  0  0
    2.0239   -2.6941    3.8380 N   0  0  0  0  0  0  0  0  0  0  0  0
    2.7068   -1.5456    3.6733 C   0  0  0  0  0  0  0  0  0  0  0  0
    3.5825   -1.3212    2.6002 C   0  0  0  0  0  0  0  0  0  0  0  0
    3.7470   -2.3257    1.6297 C   0  0  0  0  0  0  0  0  0  0  0  0
    3.0493   -3.5554    1.7877 C   0  0  0  0  0  0  0  0  0  0  0  0
    3.1694   -4.5883    0.8660 O   0  0  0  0  0  0  0  0  0  0  0  0
    4.2738   -4.5320   -0.0491 C   0  0  0  0  0  0  0  0  0  0  0  0
    4.4384   -3.1240   -0.6702 C   0  0  1  0  0  0  0  0  0  0  0  0
    5.5603   -3.1444   -1.7626 C   0  0  0  0  0  0  0  0  0  0  0  0
    4.7850   -3.4191   -3.3625 S   0  0  0  0  0  0  0  0  0  0  0  0
    3.1971   -2.9473   -2.6938 C   0  0  0  0  0  0  0  0  0  0  0  0
    2.1593   -2.7658   -3.5304 N   0  0  0  0  0  0  0  0  0  0  0  0
    3.1789   -2.7856   -1.3759 N   0  0  0  0  0  0  0  0  0  0  0  0
    4.6739   -2.0788    0.4394 C   0  0  0  0  0  0  0  0  0  0  0  0
    6.1375   -1.8781    0.8483 C   0  0  0  0  0  0  0  0  0  0  0  0
    6.2377   -0.7299   -0.0344 O   0  0  0  0  0  0  0  0  0  0  0  0
    4.7945   -0.6315   -0.0602 C   0  0  0  0  0  0  0  0  0  0  0  0
    1.2456   -5.9287    2.3489 N   0  0  0  0  0  0  0  0  0  0  0  0
   -0.7810   -8.4715    3.1828 H   0  0  0  0  0  0  0  0  0  0  0  0
    0.8577   -8.7625    2.5688 H   0  0  0  0  0  0  0  0  0  0  0  0
   -0.3235   -7.9334    1.5593 H   0  0  0  0  0  0  0  0  0  0  0  0
    2.5709   -0.7728    4.4095 H   0  0  0  0  0  0  0  0  0  0  0  0
    4.1075   -0.3739    2.5548 H   0  0  0  0  0  0  0  0  0  0  0  0
    5.2043   -4.8408    0.4509 H   0  0  0  0  0  0  0  0  0  0  0  0
    4.1194   -5.2530   -0.8541 H   0  0  0  0  0  0  0  0  0  0  0  0
    6.0574   -2.1763   -1.8547 H   0  0  0  0  0  0  0  0  0  0  0  0
    6.3433   -3.8734   -1.5622 H   0  0  0  0  0  0  0  0  0  0  0  0
    1.2534   -2.5251   -3.1547 H   0  0  0  0  0  0  0  0  0  0  0  0
    2.3923   -2.4047   -0.8431 H   0  0  0  0  0  0  0  0  0  0  0  0
    6.2798   -1.6172    1.9081 H   0  0  0  0  0  0  0  0  0  0  0  0
    6.7859   -2.7176    0.5640 H   0  0  0  0  0  0  0  0  0  0  0  0
    4.3663   -0.4959   -1.0612 H   0  0  0  0  0  0  0  0  0  0  0  0
    4.4104    0.1438    0.6190 H   0  0  0  0  0  0  0  0  0  0  0  0
    2.2618   -3.0044   -4.5000 H   0  0  0  0  0  0  0  0  0  0  0  0
  1  2  1  0
  1 25  1  0
  1 26  1  0
  1 27  1  0
  2 24  1  0
  2  3  2  0
  3  4  1  0
  4  5  1  0
  5  6  1  0
  5 24  2  0
  6 11  1  0
  6  7  2  0
  7  8  1  0
  8  9  2  0
  8 28  1  0
  9 10  1  0
  9 29  1  0
 10 20  1  0
 10 11  2  0
 11 12  1  0
 12 13  1  0
 14 13  1  1
 13 30  1  0
 13 31  1  0
 14 19  1  0
 14 15  1  0
 14 20  1  0
 15 16  1  0
 15 32  1  0
 15 33  1  0
 16 17  1  0
 17 18  1  0
 17 19  2  0
 18 34  1  0
 18 40  1  0
 19 35  1  0
 20 23  1  0
 20 21  1  0
 21 22  1  0
 21 36  1  0
 21 37  1  0
 22 23  1  0
 23 38  1  0
 23 39  1  0
M  CHG  1  19   1
M  END
>  <i_m_ct_stereo_status>  (373) 
1

>  <s_m_source_file>  (373) 
/var/tmp/pbs.5083858.sched01/tmpomdzics0/155fiydj0oo.sdf

>  <i_m_source_file_index>  (373) 
1

>  <i_lp_mmshare_version>  (373) 
48012

>  <i_f3d_flags>  (373) 
0

>  <s_epik_input>  (373) 
W0NIM11jMW5vYyhuMSktYyhuW2NIXVtjSF0yKWMoT1tDSDJdMyljMkM0KFtDSDJdT1tDSDJdNClbQ0BAXTM1W0NIMl1TL0MoPU5cW0hdKVtOSF01

>  <s_epik_cmdline>  (373) 
J2VwaWtfcHl0aG9uJywgJy1waHQnLCAnMi4wJywgJy1waCcsICc3LjAnLCAnLXRuJywgJzgnLCAnLW1hJywgJzIwMCcsICctaW1hZScsICc8aW5maWxlLm1hZT4nLCAnLW9tYWUnLCAnPG91dGZpbGUubWFlPic=

>  <r_lp_tautomer_probability>  (373) 
1

>  <r_epik_Ionization_Penalty>  (373) 
0.168512

>  <r_epik_Ionization_Penalty_Charging>  (373) 
0.0510949

>  <r_epik_Ionization_Penalty_Neutral>  (373) 
0.117417

>  <r_epik_State_Penalty>  (373) 
0.206968

>  <r_epik_Charging_Adjusted_Penalty>  (373) 
0.258063

>  <i_epik_Tot_Q>  (373) 
1

>  <i_epik_Tot_abs_Q>  (373) 
1

>  <s_epik_Chemistry_Notes>  (373) 
This compound has an imine and may undergo hydrolysis.

>  <s_lp_Force_Field>  (373) 
OPLS3e

>  <r_lp_Energy>  (373) 
24.1216

>  <b_lp_Chiralities_Consistent>  (373) 
1

>  <s_lp_Variant>  (373) 
108:0-1

>  <s_i_glide_gridfile>  (373) 
pfpi4k_grid

>  <i_i_glide_lignum>  (373) 
1

>  <i_i_glide_rotatable_bonds>  (373) 
1

>  <r_i_docking_score>  (373) 
-3.7523

>  <r_i_glide_ligand_efficiency>  (373) 
-0.156346

>  <r_i_glide_ligand_efficiency_sa>  (373) 
-0.45098

>  <r_i_glide_ligand_efficiency_ln>  (373) 
-0.898098

>  <r_i_glide_gscore>  (373) 
-3.7523

>  <r_i_glide_lipo>  (373) 
-0.466891

>  <r_i_glide_hbond>  (373) 
-0.142906

>  <r_i_glide_metal>  (373) 
-0

>  <r_i_glide_rewards>  (373) 
-1.04737

>  <r_i_glide_evdw>  (373) 
-23.0772

>  <r_i_glide_ecoul>  (373) 
-6.35505

>  <r_i_glide_erotb>  (373) 
0.158452

>  <r_i_glide_esite>  (373) 
-0.146465

>  <r_i_glide_emodel>  (373) 
-38.1865

>  <r_i_glide_energy>  (373) 
-29.4323

>  <r_i_glide_einternal>  (373) 
0.0841893

>  <r_i_glide_intrahb_reward>  (373) 
-0

>  <i_i_glide_confnum>  (373) 
4

>  <i_i_glide_posenum>  (373) 
13

>  <r_i_glide_eff_state_penalty>  (373) 
0

>  <ligand_id>  (373) 
108

>  <original_smiles>  (373) 
Cc1noc(-c2nccc3c2OCC2(CSC(=N)N2)C32COC2)n1

>  <smiles>  (373) 
[H]c1nc(-c2nc(C([H])([H])[H])no2)c2c(c1[H])C1(C([H])([H])OC1([H])[H])C1([N+]([H])=C(N([H])[H])SC1([H])[H])C([H])([H])O2

$$$$
108:1:0
     RDKit          3D

 39 43  0  0  1  0  0  0  0  0999 V2000
    8.5914   -6.7019    1.0483 C   0  0  0  0  0  0  0  0  0  0  0  0
    7.3822   -5.8830    1.2501 C   0  0  0  0  0  0  0  0  0  0  0  0
    7.3384   -4.5920    0.9582 N   0  0  0  0  0  0  0  0  0  0  0  0
    6.0171   -4.2512    1.3073 O   0  0  0  0  0  0  0  0  0  0  0  0
    5.4316   -5.3941    1.7644 C   0  0  0  0  0  0  0  0  0  0  0  0
    4.0277   -5.3614    2.1714 C   0  0  0  0  0  0  0  0  0  0  0  0
    3.5261   -4.1150    2.3996 N   0  0  0  0  0  0  0  0  0  0  0  0
    2.2513   -4.0051    2.8103 C   0  0  0  0  0  0  0  0  0  0  0  0
    1.4158   -5.1131    3.0109 C   0  0  0  0  0  0  0  0  0  0  0  0
    1.9125   -6.4143    2.7597 C   0  0  0  0  0  0  0  0  0  0  0  0
    3.2404   -6.5372    2.3069 C   0  0  0  0  0  0  0  0  0  0  0  0
    3.7839   -7.7836    2.0287 O   0  0  0  0  0  0  0  0  0  0  0  0
    2.9057   -8.8868    1.9441 C   0  0  0  0  0  0  0  0  0  0  0  0
    1.8269   -8.9388    3.0616 C   0  0  1  0  0  0  0  0  0  0  0  0
    0.9239  -10.2319    2.9837 C   0  0  0  0  0  0  0  0  0  0  0  0
    1.1988  -11.2469    4.4257 S   0  0  0  0  0  0  0  0  0  0  0  0
    2.2444   -9.9785    5.0507 C   0  0  0  0  0  0  0  0  0  0  0  0
    2.6674  -10.2479    6.3330 N   0  0  0  0  0  0  0  0  0  0  0  0
    2.5322   -8.9482    4.3545 N   0  0  0  0  0  0  0  0  0  0  0  0
    0.9972   -7.6388    2.9527 C   0  0  0  0  0  0  0  0  0  0  0  0
   -0.1779   -7.5554    1.9584 C   0  0  0  0  0  0  0  0  0  0  0  0
   -1.0348   -7.0069    2.9722 O   0  0  0  0  0  0  0  0  0  0  0  0
   -0.1090   -7.4443    3.9854 C   0  0  0  0  0  0  0  0  0  0  0  0
    6.2564   -6.4374    1.7420 N   0  0  0  0  0  0  0  0  0  0  0  0
    9.3321   -6.1745    0.4569 H   0  0  0  0  0  0  0  0  0  0  0  0
    8.3055   -7.6310    0.5483 H   0  0  0  0  0  0  0  0  0  0  0  0
    9.0148   -6.9329    2.0265 H   0  0  0  0  0  0  0  0  0  0  0  0
    1.8769   -3.0174    2.9909 H   0  0  0  0  0  0  0  0  0  0  0  0
    0.4069   -4.9380    3.3462 H   0  0  0  0  0  0  0  0  0  0  0  0
    2.4479   -8.8766    0.9468 H   0  0  0  0  0  0  0  0  0  0  0  0
    3.5367   -9.7786    1.9896 H   0  0  0  0  0  0  0  0  0  0  0  0
   -0.1501  -10.0755    3.0029 H   0  0  0  0  0  0  0  0  0  0  0  0
    1.0989  -10.7922    2.0834 H   0  0  0  0  0  0  0  0  0  0  0  0
    3.3666   -9.7077    6.8022 H   0  0  0  0  0  0  0  0  0  0  0  0
    0.0196   -6.8566    1.1380 H   0  0  0  0  0  0  0  0  0  0  0  0
   -0.5916   -8.4972    1.5736 H   0  0  0  0  0  0  0  0  0  0  0  0
   -0.4240   -8.3702    4.4793 H   0  0  0  0  0  0  0  0  0  0  0  0
    0.1369   -6.6927    4.7457 H   0  0  0  0  0  0  0  0  0  0  0  0
    2.3382  -11.0877    6.8305 H   0  0  0  0  0  0  0  0  0  0  0  0
  1  2  1  0
  1 25  1  0
  1 26  1  0
  1 27  1  0
  2 24  1  0
  2  3  2  0
  3  4  1  0
  4  5  1  0
  5  6  1  0
  5 24  2  0
  6 11  1  0
  6  7  2  0
  7  8  1  0
  8  9  2  0
  8 28  1  0
  9 10  1  0
  9 29  1  0
 10 20  1  0
 10 11  2  0
 11 12  1  0
 12 13  1  0
 14 13  1  6
 13 30  1  0
 13 31  1  0
 14 19  1  0
 14 15  1  0
 14 20  1  0
 15 16  1  0
 15 32  1  0
 15 33  1  0
 16 17  1  0
 17 18  1  0
 17 19  2  0
 18 34  1  0
 18 39  1  0
 20 23  1  0
 20 21  1  0
 21 22  1  0
 21 35  1  0
 21 36  1  0
 22 23  1  0
 23 37  1  0
 23 38  1  0
M  END
>  <i_m_ct_stereo_status>  (374) 
1

>  <s_m_source_file>  (374) 
/var/tmp/pbs.5083858.sched01/tmpomdzics0/155fiydj0oo.sdf

>  <i_m_source_file_index>  (374) 
2

>  <i_lp_mmshare_version>  (374) 
48012

>  <i_f3d_flags>  (374) 
0

>  <s_epik_input>  (374) 
W0NIM11jMW5vYyhuMSktYyhuW2NIXVtjSF0yKWMoT1tDSDJdMyljMkM0KFtDSDJdT1tDSDJdNClbQ0BAXTM1W0NIMl1TL0MoPU5cW0hdKVtOSF01

>  <s_epik_cmdline>  (374) 
J2VwaWtfcHl0aG9uJywgJy1waHQnLCAnMi4wJywgJy1waCcsICc3LjAnLCAnLXRuJywgJzgnLCAnLW1hJywgJzIwMCcsICctaW1hZScsICc8aW5maWxlLm1hZT4nLCAnLW9tYWUnLCAnPG91dGZpbGUubWFlPic=

>  <r_lp_tautomer_probability>  (374) 
1

>  <r_epik_Ionization_Penalty>  (374) 
1.02209

>  <r_epik_Ionization_Penalty_Charging>  (374) 
1.02069

>  <r_epik_Ionization_Penalty_Neutral>  (374) 
0.00139496

>  <r_epik_State_Penalty>  (374) 
1.17176

>  <r_epik_Charging_Adjusted_Penalty>  (374) 
2.19245

>  <i_epik_Tot_Q>  (374) 
0

>  <i_epik_Tot_abs_Q>  (374) 
0

>  <s_epik_Chemistry_Notes>  (374) 
This compound has an imine and may undergo hydrolysis.

>  <s_lp_Force_Field>  (374) 
OPLS3e

>  <r_lp_Energy>  (374) 
9.00613

>  <b_lp_Chiralities_Consistent>  (374) 
1

>  <s_lp_Variant>  (374) 
108:0-2

>  <s_i_glide_gridfile>  (374) 
pfpi4k_grid

>  <i_i_glide_lignum>  (374) 
2

>  <i_i_glide_rotatable_bonds>  (374) 
1

>  <r_i_docking_score>  (374) 
-3.98542

>  <r_i_glide_ligand_efficiency>  (374) 
-0.166059

>  <r_i_glide_ligand_efficiency_sa>  (374) 
-0.478998

>  <r_i_glide_ligand_efficiency_ln>  (374) 
-0.953895

>  <r_i_glide_gscore>  (374) 
-3.98542

>  <r_i_glide_lipo>  (374) 
-0.260279

>  <r_i_glide_hbond>  (374) 
-0.32

>  <r_i_glide_metal>  (374) 
-0

>  <r_i_glide_rewards>  (374) 
-1.14053

>  <r_i_glide_evdw>  (374) 
-22.7688

>  <r_i_glide_ecoul>  (374) 
-7.70007

>  <r_i_glide_erotb>  (374) 
0.159274

>  <r_i_glide_esite>  (374) 
-0.130435

>  <r_i_glide_emodel>  (374) 
-38.3817

>  <r_i_glide_energy>  (374) 
-30.4689

>  <r_i_glide_einternal>  (374) 
0.385692

>  <r_i_glide_intrahb_reward>  (374) 
-0

>  <i_i_glide_confnum>  (374) 
4

>  <i_i_glide_posenum>  (374) 
37

>  <r_i_glide_eff_state_penalty>  (374) 
0

>  <ligand_id>  (374) 
108

>  <original_smiles>  (374) 
Cc1noc(-c2nccc3c2OCC2(CSC(=N)N2)C32COC2)n1

>  <smiles>  (374) 
[H]c1nc(-c2nc(C([H])([H])[H])no2)c2c(c1[H])C1(C([H])([H])OC1([H])[H])C1(N=C(N([H])[H])SC1([H])[H])C([H])([H])O2

$$$$
108:1:1
     RDKit          3D

 39 43  0  0  1  0  0  0  0  0999 V2000
   -0.2600   -9.7662    2.7964 C   0  0  0  0  0  0  0  0  0  0  0  0
    0.7191   -8.6761    2.5626 C   0  0  0  0  0  0  0  0  0  0  0  0
    1.9399   -8.9384    2.1113 N   0  0  0  0  0  0  0  0  0  0  0  0
    2.5227   -7.6686    2.0149 O   0  0  0  0  0  0  0  0  0  0  0  0
    1.5780   -6.7877    2.4331 C   0  0  0  0  0  0  0  0  0  0  0  0
    1.8744   -5.3652    2.4713 C   0  0  0  0  0  0  0  0  0  0  0  0
    1.2335   -4.6772    3.4482 N   0  0  0  0  0  0  0  0  0  0  0  0
    1.4593   -3.3584    3.5358 C   0  0  0  0  0  0  0  0  0  0  0  0
    2.2965   -2.6504    2.6646 C   0  0  0  0  0  0  0  0  0  0  0  0
    2.9359   -3.3524    1.6151 C   0  0  0  0  0  0  0  0  0  0  0  0
    2.7428   -4.7565    1.5147 C   0  0  0  0  0  0  0  0  0  0  0  0
    3.3252   -5.5064    0.5067 O   0  0  0  0  0  0  0  0  0  0  0  0
    4.4074   -4.8956   -0.2141 C   0  0  0  0  0  0  0  0  0  0  0  0
    4.1169   -3.4314   -0.6377 C   0  0  1  0  0  0  0  0  0  0  0  0
    5.3051   -2.8697   -1.5059 C   0  0  0  0  0  0  0  0  0  0  0  0
    4.6967   -2.4508   -3.1271 S   0  0  0  0  0  0  0  0  0  0  0  0
    3.0872   -2.9923   -2.6417 C   0  0  0  0  0  0  0  0  0  0  0  0
    2.1203   -2.8816   -3.6282 N   0  0  0  0  0  0  0  0  0  0  0  0
    2.9098   -3.4553   -1.4758 N   0  0  0  0  0  0  0  0  0  0  0  0
    3.8218   -2.5743    0.6326 C   0  0  0  0  0  0  0  0  0  0  0  0
    5.0593   -1.9857    1.3332 C   0  0  0  0  0  0  0  0  0  0  0  0
    4.8675   -0.7204    0.6384 O   0  0  0  0  0  0  0  0  0  0  0  0
    3.4884   -1.0894    0.3634 C   0  0  0  0  0  0  0  0  0  0  0  0
    0.4277   -7.3673    2.7812 N   0  0  0  0  0  0  0  0  0  0  0  0
    0.0850  -10.6982    2.3534 H   0  0  0  0  0  0  0  0  0  0  0  0
   -1.2178   -9.5056    2.3516 H   0  0  0  0  0  0  0  0  0  0  0  0
   -0.3958   -9.9245    3.8634 H   0  0  0  0  0  0  0  0  0  0  0  0
    0.9616   -2.8315    4.3272 H   0  0  0  0  0  0  0  0  0  0  0  0
    2.4256   -1.5845    2.8216 H   0  0  0  0  0  0  0  0  0  0  0  0
    5.3125   -4.9383    0.3981 H   0  0  0  0  0  0  0  0  0  0  0  0
    4.5958   -5.5126   -1.0985 H   0  0  0  0  0  0  0  0  0  0  0  0
    5.7340   -1.9452   -1.1483 H   0  0  0  0  0  0  0  0  0  0  0  0
    6.1350   -3.5621   -1.5976 H   0  0  0  0  0  0  0  0  0  0  0  0
    1.1761   -3.2393   -3.4790 H   0  0  0  0  0  0  0  0  0  0  0  0
    4.9541   -1.9002    2.4292 H   0  0  0  0  0  0  0  0  0  0  0  0
    5.9937   -2.4983    1.0595 H   0  0  0  0  0  0  0  0  0  0  0  0
    3.1960   -0.9156   -0.6770 H   0  0  0  0  0  0  0  0  0  0  0  0
    2.7662   -0.6309    1.0560 H   0  0  0  0  0  0  0  0  0  0  0  0
    2.2837   -2.4452   -4.5231 H   0  0  0  0  0  0  0  0  0  0  0  0
  1  2  1  0
  1 25  1  0
  1 26  1  0
  1 27  1  0
  2 24  1  0
  2  3  2  0
  3  4  1  0
  4  5  1  0
  5  6  1  0
  5 24  2  0
  6 11  1  0
  6  7  2  0
  7  8  1  0
  8  9  2  0
  8 28  1  0
  9 10  1  0
  9 29  1  0
 10 20  1  0
 10 11  2  0
 11 12  1  0
 12 13  1  0
 14 13  1  1
 13 30  1  0
 13 31  1  0
 14 19  1  0
 14 15  1  0
 14 20  1  0
 15 16  1  0
 15 32  1  0
 15 33  1  0
 16 17  1  0
 17 18  1  0
 17 19  2  0
 18 34  1  0
 18 39  1  0
 20 23  1  0
 20 21  1  0
 21 22  1  0
 21 35  1  0
 21 36  1  0
 22 23  1  0
 23 37  1  0
 23 38  1  0
M  END
>  <i_m_ct_stereo_status>  (375) 
1

>  <s_m_source_file>  (375) 
/var/tmp/pbs.5083858.sched01/tmpomdzics0/155fiydj0oo.sdf

>  <i_m_source_file_index>  (375) 
2

>  <i_lp_mmshare_version>  (375) 
48012

>  <i_f3d_flags>  (375) 
0

>  <s_epik_input>  (375) 
W0NIM11jMW5vYyhuMSktYyhuW2NIXVtjSF0yKWMoT1tDSDJdMyljMkM0KFtDSDJdT1tDSDJdNClbQ0BAXTM1W0NIMl1TL0MoPU5cW0hdKVtOSF01

>  <s_epik_cmdline>  (375) 
J2VwaWtfcHl0aG9uJywgJy1waHQnLCAnMi4wJywgJy1waCcsICc3LjAnLCAnLXRuJywgJzgnLCAnLW1hJywgJzIwMCcsICctaW1hZScsICc8aW5maWxlLm1hZT4nLCAnLW9tYWUnLCAnPG91dGZpbGUubWFlPic=

>  <r_lp_tautomer_probability>  (375) 
1

>  <r_epik_Ionization_Penalty>  (375) 
1.02209

>  <r_epik_Ionization_Penalty_Charging>  (375) 
1.02069

>  <r_epik_Ionization_Penalty_Neutral>  (375) 
0.00139496

>  <r_epik_State_Penalty>  (375) 
1.17176

>  <r_epik_Charging_Adjusted_Penalty>  (375) 
2.19245

>  <i_epik_Tot_Q>  (375) 
0

>  <i_epik_Tot_abs_Q>  (375) 
0

>  <s_epik_Chemistry_Notes>  (375) 
This compound has an imine and may undergo hydrolysis.

>  <s_lp_Force_Field>  (375) 
OPLS3e

>  <r_lp_Energy>  (375) 
9.00613

>  <b_lp_Chiralities_Consistent>  (375) 
1

>  <s_lp_Variant>  (375) 
108:0-2

>  <s_i_glide_gridfile>  (375) 
pfpi4k_grid

>  <i_i_glide_lignum>  (375) 
2

>  <i_i_glide_rotatable_bonds>  (375) 
1

>  <r_i_docking_score>  (375) 
-3.59517

>  <r_i_glide_ligand_efficiency>  (375) 
-0.149799

>  <r_i_glide_ligand_efficiency_sa>  (375) 
-0.432094

>  <r_i_glide_ligand_efficiency_ln>  (375) 
-0.860489

>  <r_i_glide_gscore>  (375) 
-3.59517

>  <r_i_glide_lipo>  (375) 
-0.237134

>  <r_i_glide_hbond>  (375) 
-0.482468

>  <r_i_glide_metal>  (375) 
-0

>  <r_i_glide_rewards>  (375) 
-1.05425

>  <r_i_glide_evdw>  (375) 
-29.8123

>  <r_i_glide_ecoul>  (375) 
-2.8165

>  <r_i_glide_erotb>  (375) 
0.159274

>  <r_i_glide_esite>  (375) 
-0.0675087

>  <r_i_glide_emodel>  (375) 
-38.8293

>  <r_i_glide_energy>  (375) 
-32.6288

>  <r_i_glide_einternal>  (375) 
2.43354

>  <r_i_glide_intrahb_reward>  (375) 
-0

>  <i_i_glide_confnum>  (375) 
3

>  <i_i_glide_posenum>  (375) 
10

>  <r_i_glide_eff_state_penalty>  (375) 
0

>  <ligand_id>  (375) 
108

>  <original_smiles>  (375) 
Cc1noc(-c2nccc3c2OCC2(CSC(=N)N2)C32COC2)n1

>  <smiles>  (375) 
[H]c1nc(-c2nc(C([H])([H])[H])no2)c2c(c1[H])C1(C([H])([H])OC1([H])[H])C1(N=C(N([H])[H])SC1([H])[H])C([H])([H])O2

$$$$
108:1:2
     RDKit          3D

 39 43  0  0  1  0  0  0  0  0999 V2000
    0.1075   -8.6526    2.5151 C   0  0  0  0  0  0  0  0  0  0  0  0
    0.3995   -7.3031    3.0381 C   0  0  0  0  0  0  0  0  0  0  0  0
   -0.0033   -6.8873    4.2286 N   0  0  0  0  0  0  0  0  0  0  0  0
    0.5395   -5.5951    4.3037 O   0  0  0  0  0  0  0  0  0  0  0  0
    1.1850   -5.3742    3.1325 C   0  0  0  0  0  0  0  0  0  0  0  0
    1.8548   -4.0865    2.9159 C   0  0  0  0  0  0  0  0  0  0  0  0
    1.5100   -3.1049    3.7817 N   0  0  0  0  0  0  0  0  0  0  0  0
    2.0607   -1.8913    3.6086 C   0  0  0  0  0  0  0  0  0  0  0  0
    2.9673   -1.5882    2.5810 C   0  0  0  0  0  0  0  0  0  0  0  0
    3.3352   -2.5916    1.6703 C   0  0  0  0  0  0  0  0  0  0  0  0
    2.7762   -3.9037    1.8398 C   0  0  0  0  0  0  0  0  0  0  0  0
    3.0854   -4.9335    0.9916 O   0  0  0  0  0  0  0  0  0  0  0  0
    4.2124   -4.7643    0.1269 C   0  0  0  0  0  0  0  0  0  0  0  0
    4.2782   -3.3748   -0.5645 C   0  0  1  0  0  0  0  0  0  0  0  0
    5.4958   -3.2823   -1.5655 C   0  0  0  0  0  0  0  0  0  0  0  0
    4.8525   -3.0563   -3.2245 S   0  0  0  0  0  0  0  0  0  0  0  0
    3.2180   -3.0110   -2.5822 C   0  0  0  0  0  0  0  0  0  0  0  0
    2.2543   -2.7650   -3.5269 N   0  0  0  0  0  0  0  0  0  0  0  0
    3.0274   -3.2063   -1.3218 N   0  0  0  0  0  0  0  0  0  0  0  0
    4.3423   -2.3002    0.5433 C   0  0  0  0  0  0  0  0  0  0  0  0
    5.7099   -1.9308    1.1610 C   0  0  0  0  0  0  0  0  0  0  0  0
    5.4294   -0.5248    0.9933 O   0  0  0  0  0  0  0  0  0  0  0  0
    4.3528   -0.8378    0.0821 C   0  0  0  0  0  0  0  0  0  0  0  0
    1.0769   -6.4015    2.2839 N   0  0  0  0  0  0  0  0  0  0  0  0
   -0.2806   -9.3065    3.2951 H   0  0  0  0  0  0  0  0  0  0  0  0
    1.0182   -9.0816    2.0884 H   0  0  0  0  0  0  0  0  0  0  0  0
   -0.6446   -8.5677    1.7341 H   0  0  0  0  0  0  0  0  0  0  0  0
    1.7785   -1.1251    4.3064 H   0  0  0  0  0  0  0  0  0  0  0  0
    3.3759   -0.5880    2.5215 H   0  0  0  0  0  0  0  0  0  0  0  0
    5.1189   -4.9442    0.7172 H   0  0  0  0  0  0  0  0  0  0  0  0
    4.1388   -5.5511   -0.6233 H   0  0  0  0  0  0  0  0  0  0  0  0
    6.1165   -2.4088   -1.4146 H   0  0  0  0  0  0  0  0  0  0  0  0
    6.1811   -4.1286   -1.5012 H   0  0  0  0  0  0  0  0  0  0  0  0
    1.2700   -2.8310   -3.3002 H   0  0  0  0  0  0  0  0  0  0  0  0
    5.7572   -2.2195    2.2301 H   0  0  0  0  0  0  0  0  0  0  0  0
    6.5928   -2.2281    0.5694 H   0  0  0  0  0  0  0  0  0  0  0  0
    4.6397   -0.7068   -0.9716 H   0  0  0  0  0  0  0  0  0  0  0  0
    3.4085   -0.3183    0.2852 H   0  0  0  0  0  0  0  0  0  0  0  0
    2.4505   -2.5782   -4.5043 H   0  0  0  0  0  0  0  0  0  0  0  0
  1  2  1  0
  1 25  1  0
  1 26  1  0
  1 27  1  0
  2 24  1  0
  2  3  2  0
  3  4  1  0
  4  5  1  0
  5  6  1  0
  5 24  2  0
  6 11  1  0
  6  7  2  0
  7  8  1  0
  8  9  2  0
  8 28  1  0
  9 10  1  0
  9 29  1  0
 10 20  1  0
 10 11  2  0
 11 12  1  0
 12 13  1  0
 14 13  1  1
 13 30  1  0
 13 31  1  0
 14 19  1  0
 14 15  1  0
 14 20  1  0
 15 16  1  0
 15 32  1  0
 15 33  1  0
 16 17  1  0
 17 18  1  0
 17 19  2  0
 18 34  1  0
 18 39  1  0
 20 23  1  0
 20 21  1  0
 21 22  1  0
 21 35  1  0
 21 36  1  0
 22 23  1  0
 23 37  1  0
 23 38  1  0
M  END
>  <i_m_ct_stereo_status>  (376) 
1

>  <s_m_source_file>  (376) 
/var/tmp/pbs.5083858.sched01/tmpomdzics0/155fiydj0oo.sdf

>  <i_m_source_file_index>  (376) 
2

>  <i_lp_mmshare_version>  (376) 
48012

>  <i_f3d_flags>  (376) 
0

>  <s_epik_input>  (376) 
W0NIM11jMW5vYyhuMSktYyhuW2NIXVtjSF0yKWMoT1tDSDJdMyljMkM0KFtDSDJdT1tDSDJdNClbQ0BAXTM1W0NIMl1TL0MoPU5cW0hdKVtOSF01

>  <s_epik_cmdline>  (376) 
J2VwaWtfcHl0aG9uJywgJy1waHQnLCAnMi4wJywgJy1waCcsICc3LjAnLCAnLXRuJywgJzgnLCAnLW1hJywgJzIwMCcsICctaW1hZScsICc8aW5maWxlLm1hZT4nLCAnLW9tYWUnLCAnPG91dGZpbGUubWFlPic=

>  <r_lp_tautomer_probability>  (376) 
1

>  <r_epik_Ionization_Penalty>  (376) 
1.02209

>  <r_epik_Ionization_Penalty_Charging>  (376) 
1.02069

>  <r_epik_Ionization_Penalty_Neutral>  (376) 
0.00139496

>  <r_epik_State_Penalty>  (376) 
1.17176

>  <r_epik_Charging_Adjusted_Penalty>  (376) 
2.19245

>  <i_epik_Tot_Q>  (376) 
0

>  <i_epik_Tot_abs_Q>  (376) 
0

>  <s_epik_Chemistry_Notes>  (376) 
This compound has an imine and may undergo hydrolysis.

>  <s_lp_Force_Field>  (376) 
OPLS3e

>  <r_lp_Energy>  (376) 
9.00613

>  <b_lp_Chiralities_Consistent>  (376) 
1

>  <s_lp_Variant>  (376) 
108:0-2

>  <s_i_glide_gridfile>  (376) 
pfpi4k_grid

>  <i_i_glide_lignum>  (376) 
2

>  <i_i_glide_rotatable_bonds>  (376) 
1

>  <r_i_docking_score>  (376) 
-3.38272

>  <r_i_glide_ligand_efficiency>  (376) 
-0.140947

>  <r_i_glide_ligand_efficiency_sa>  (376) 
-0.406561

>  <r_i_glide_ligand_efficiency_ln>  (376) 
-0.809641

>  <r_i_glide_gscore>  (376) 
-3.38272

>  <r_i_glide_lipo>  (376) 
-0.437608

>  <r_i_glide_hbond>  (376) 
-0.143622

>  <r_i_glide_metal>  (376) 
-0

>  <r_i_glide_rewards>  (376) 
-1.05425

>  <r_i_glide_evdw>  (376) 
-29.1722

>  <r_i_glide_ecoul>  (376) 
-2.10606

>  <r_i_glide_erotb>  (376) 
0.159274

>  <r_i_glide_esite>  (376) 
-0.132004

>  <r_i_glide_emodel>  (376) 
-37.9465

>  <r_i_glide_energy>  (376) 
-31.2783

>  <r_i_glide_einternal>  (376) 
0.273172

>  <r_i_glide_intrahb_reward>  (376) 
-0

>  <i_i_glide_confnum>  (376) 
4

>  <i_i_glide_posenum>  (376) 
25

>  <r_i_glide_eff_state_penalty>  (376) 
0

>  <ligand_id>  (376) 
108

>  <original_smiles>  (376) 
Cc1noc(-c2nccc3c2OCC2(CSC(=N)N2)C32COC2)n1

>  <smiles>  (376) 
[H]c1nc(-c2nc(C([H])([H])[H])no2)c2c(c1[H])C1(C([H])([H])OC1([H])[H])C1(N=C(N([H])[H])SC1([H])[H])C([H])([H])O2

$$$$
108:2:0
     RDKit          3D

 39 43  0  0  1  0  0  0  0  0999 V2000
   -0.0426   -8.1336    2.1741 C   0  0  0  0  0  0  0  0  0  0  0  0
    0.4491   -6.8837    2.7853 C   0  0  0  0  0  0  0  0  0  0  0  0
    0.1526   -6.5294    4.0281 N   0  0  0  0  0  0  0  0  0  0  0  0
    0.8073   -5.2975    4.1665 O   0  0  0  0  0  0  0  0  0  0  0  0
    1.4203   -5.0497    2.9789 C   0  0  0  0  0  0  0  0  0  0  0  0
    2.1958   -3.8171    2.8296 C   0  0  0  0  0  0  0  0  0  0  0  0
    2.0071   -2.8994    3.7977 N   0  0  0  0  0  0  0  0  0  0  0  0
    2.6833   -1.7433    3.7075 C   0  0  0  0  0  0  0  0  0  0  0  0
    3.5727   -1.4372    2.6622 C   0  0  0  0  0  0  0  0  0  0  0  0
    3.7485   -2.3749    1.6286 C   0  0  0  0  0  0  0  0  0  0  0  0
    3.0594   -3.6168    1.7177 C   0  0  0  0  0  0  0  0  0  0  0  0
    3.1888   -4.5937    0.7464 O   0  0  0  0  0  0  0  0  0  0  0  0
    4.3094   -4.4752   -0.1644 C   0  0  0  0  0  0  0  0  0  0  0  0
    4.4405   -3.0364   -0.7241 C   0  0  1  0  0  0  0  0  0  0  0  0
    5.5828   -3.0061   -1.8047 C   0  0  0  0  0  0  0  0  0  0  0  0
    4.8434   -3.2980   -3.4124 S   0  0  0  0  0  0  0  0  0  0  0  0
    3.1988   -2.8535   -2.8098 C   0  0  0  0  0  0  0  0  0  0  0  0
    2.1504   -2.6677   -3.5211 N   0  0  0  0  0  0  0  0  0  0  0  0
    3.2166   -2.6851   -1.4480 N   0  0  0  0  0  0  0  0  0  0  0  0
    4.6706   -2.0379    0.4605 C   0  0  0  0  0  0  0  0  0  0  0  0
    4.8010   -0.5521    0.0456 C   0  0  0  0  0  0  0  0  0  0  0  0
    6.2587   -0.6428    0.0921 O   0  0  0  0  0  0  0  0  0  0  0  0
    6.1431   -1.8532    0.9028 C   0  0  0  0  0  0  0  0  0  0  0  0
    1.1933   -6.0062    2.0706 N   0  0  0  0  0  0  0  0  0  0  0  0
   -0.8302   -8.5821    2.7694 H   0  0  0  0  0  0  0  0  0  0  0  0
    0.7746   -8.8384    2.0793 H   0  0  0  0  0  0  0  0  0  0  0  0
   -0.4213   -7.8924    1.1858 H   0  0  0  0  0  0  0  0  0  0  0  0
    2.5269   -1.0094    4.4905 H   0  0  0  0  0  0  0  0  0  0  0  0
    4.0921   -0.4782    2.6960 H   0  0  0  0  0  0  0  0  0  0  0  0
    5.2265   -4.8026    0.3478 H   0  0  0  0  0  0  0  0  0  0  0  0
    4.1361   -5.1592   -0.9917 H   0  0  0  0  0  0  0  0  0  0  0  0
    6.0274   -2.0097   -1.8811 H   0  0  0  0  0  0  0  0  0  0  0  0
    6.4045   -3.7045   -1.5837 H   0  0  0  0  0  0  0  0  0  0  0  0
    2.3485   -2.7988   -4.4971 H   0  0  0  0  0  0  0  0  0  0  0  0
    2.3540   -2.5016   -0.9420 H   0  0  0  0  0  0  0  0  0  0  0  0
    4.4442   -0.3790   -0.9731 H   0  0  0  0  0  0  0  0  0  0  0  0
    4.4085    0.1861    0.7535 H   0  0  0  0  0  0  0  0  0  0  0  0
    6.2621   -1.6612    1.9780 H   0  0  0  0  0  0  0  0  0  0  0  0
    6.8116   -2.6530    0.5593 H   0  0  0  0  0  0  0  0  0  0  0  0
  1  2  1  0
  1 25  1  0
  1 26  1  0
  1 27  1  0
  2 24  1  0
  2  3  2  0
  3  4  1  0
  4  5  1  0
  5  6  1  0
  5 24  2  0
  6 11  1  0
  6  7  2  0
  7  8  1  0
  8  9  2  0
  8 28  1  0
  9 10  1  0
  9 29  1  0
 10 20  1  0
 10 11  2  0
 11 12  1  0
 12 13  1  0
 13 14  1  0
 13 30  1  0
 13 31  1  0
 14 19  1  6
 14 15  1  0
 14 20  1  0
 15 16  1  0
 15 32  1  0
 15 33  1  0
 16 17  1  0
 17 18  2  3
 17 19  1  0
 18 34  1  0
 19 35  1  0
 20 23  1  0
 20 21  1  0
 21 22  1  0
 21 36  1  0
 21 37  1  0
 22 23  1  0
 23 38  1  0
 23 39  1  0
M  END
>  <i_m_ct_stereo_status>  (377) 
1

>  <s_m_source_file>  (377) 
/var/tmp/pbs.5083858.sched01/tmpomdzics0/155fiydj0oo.sdf

>  <i_m_source_file_index>  (377) 
3

>  <i_lp_mmshare_version>  (377) 
48012

>  <i_f3d_flags>  (377) 
0

>  <s_epik_input>  (377) 
W0NIM11jMW5vYyhuMSktYyhuW2NIXVtjSF0yKWMoT1tDSDJdMyljMkM0KFtDSDJdT1tDSDJdNClbQ0BAXTM1W0NIMl1TL0MoPU5cW0hdKVtOSF01

>  <s_epik_cmdline>  (377) 
J2VwaWtfcHl0aG9uJywgJy1waHQnLCAnMi4wJywgJy1waCcsICc3LjAnLCAnLXRuJywgJzgnLCAnLW1hJywgJzIwMCcsICctaW1hZScsICc8aW5maWxlLm1hZT4nLCAnLW9tYWUnLCAnPG91dGZpbGUubWFlPic=

>  <r_epik_Ionization_Penalty>  (377) 
1.1149

>  <r_epik_Ionization_Penalty_Charging>  (377) 
0

>  <r_epik_Ionization_Penalty_Neutral>  (377) 
1.1149

>  <r_epik_State_Penalty>  (377) 
1.50977

>  <r_epik_Charging_Adjusted_Penalty>  (377) 
1.50977

>  <i_epik_Tot_Q>  (377) 
0

>  <i_epik_Tot_abs_Q>  (377) 
0

>  <s_epik_Chemistry_Notes>  (377) 
This compound has an imine and may undergo hydrolysis.

>  <s_lp_Force_Field>  (377) 
OPLS3e

>  <r_lp_Energy>  (377) 
19.7102

>  <b_lp_Chiralities_Consistent>  (377) 
1

>  <s_lp_Variant>  (377) 
108:0-3

>  <s_i_glide_gridfile>  (377) 
pfpi4k_grid

>  <i_i_glide_lignum>  (377) 
3

>  <i_i_glide_rotatable_bonds>  (377) 
1

>  <r_i_docking_score>  (377) 
-3.73208

>  <r_i_glide_ligand_efficiency>  (377) 
-0.155503

>  <r_i_glide_ligand_efficiency_sa>  (377) 
-0.448549

>  <r_i_glide_ligand_efficiency_ln>  (377) 
-0.893258

>  <r_i_glide_gscore>  (377) 
-3.73208

>  <r_i_glide_lipo>  (377) 
-0.501622

>  <r_i_glide_hbond>  (377) 
-0.236311

>  <r_i_glide_metal>  (377) 
-0

>  <r_i_glide_rewards>  (377) 
-1.05425

>  <r_i_glide_evdw>  (377) 
-28.1208

>  <r_i_glide_ecoul>  (377) 
-3.53136

>  <r_i_glide_erotb>  (377) 
0.159274

>  <r_i_glide_esite>  (377) 
-0.16343

>  <r_i_glide_emodel>  (377) 
-38.9362

>  <r_i_glide_energy>  (377) 
-31.6522

>  <r_i_glide_einternal>  (377) 
0.193416

>  <r_i_glide_intrahb_reward>  (377) 
-0

>  <i_i_glide_confnum>  (377) 
4

>  <i_i_glide_posenum>  (377) 
8

>  <r_i_glide_eff_state_penalty>  (377) 
0

>  <ligand_id>  (377) 
108

>  <original_smiles>  (377) 
Cc1noc(-c2nccc3c2OCC2(CSC(=N)N2)C32COC2)n1

>  <smiles>  (377) 
[H]N=C1SC([H])([H])C2(N1[H])C([H])([H])Oc1c(-c3nc(C([H])([H])[H])no3)nc([H])c([H])c1C21C([H])([H])OC1([H])[H]

$$$$
108:2:1
     RDKit          3D

 39 43  0  0  1  0  0  0  0  0999 V2000
   -0.9913   -9.3145    2.8741 C   0  0  0  0  0  0  0  0  0  0  0  0
   -0.0903   -8.2492    2.3705 C   0  0  0  0  0  0  0  0  0  0  0  0
   -0.5715   -7.0940    1.9376 N   0  0  0  0  0  0  0  0  0  0  0  0
    0.5826   -6.4182    1.5001 O   0  0  0  0  0  0  0  0  0  0  0  0
    1.6358   -7.2387    1.7720 C   0  0  0  0  0  0  0  0  0  0  0  0
    2.9983   -6.8015    1.4590 C   0  0  0  0  0  0  0  0  0  0  0  0
    3.9369   -7.7852    1.5546 N   0  0  0  0  0  0  0  0  0  0  0  0
    5.2180   -7.4784    1.2864 C   0  0  0  0  0  0  0  0  0  0  0  0
    5.6368   -6.1893    0.9296 C   0  0  0  0  0  0  0  0  0  0  0  0
    4.6741   -5.1531    0.8414 C   0  0  0  0  0  0  0  0  0  0  0  0
    3.3165   -5.4609    1.0958 C   0  0  0  0  0  0  0  0  0  0  0  0
    2.3457   -4.4960    1.0483 O   0  0  0  0  0  0  0  0  0  0  0  0
    2.6473   -3.2794    0.3969 C   0  0  0  0  0  0  0  0  0  0  0  0
    4.0216   -2.7042    0.8232 C   0  0  1  0  0  0  0  0  0  0  0  0
    4.2589   -1.3107    0.1563 C   0  0  0  0  0  0  0  0  0  0  0  0
    3.7030   -0.0621    1.3197 S   0  0  0  0  0  0  0  0  0  0  0  0
    3.7143   -1.2006    2.7163 C   0  0  0  0  0  0  0  0  0  0  0  0
    3.5229   -0.9211    3.9471 N   0  0  0  0  0  0  0  0  0  0  0  0
    4.0010   -2.4674    2.2645 N   0  0  0  0  0  0  0  0  0  0  0  0
    5.1192   -3.7258    0.4775 C   0  0  0  0  0  0  0  0  0  0  0  0
    6.5476   -3.3792    0.9162 C   0  0  0  0  0  0  0  0  0  0  0  0
    7.0681   -3.7878   -0.3571 O   0  0  0  0  0  0  0  0  0  0  0  0
    5.7501   -3.6873   -0.9228 C   0  0  0  0  0  0  0  0  0  0  0  0
    1.2629   -8.3896    2.3308 N   0  0  0  0  0  0  0  0  0  0  0  0
   -2.0247   -9.0979    2.6077 H   0  0  0  0  0  0  0  0  0  0  0  0
   -0.9214   -9.3613    3.9592 H   0  0  0  0  0  0  0  0  0  0  0  0
   -0.6984  -10.2715    2.4434 H   0  0  0  0  0  0  0  0  0  0  0  0
    5.9351   -8.2711    1.3588 H   0  0  0  0  0  0  0  0  0  0  0  0
    6.6909   -6.0187    0.7386 H   0  0  0  0  0  0  0  0  0  0  0  0
    2.6097   -3.4149   -0.6928 H   0  0  0  0  0  0  0  0  0  0  0  0
    1.8684   -2.5554    0.6608 H   0  0  0  0  0  0  0  0  0  0  0  0
    5.3210   -1.1015    0.0256 H   0  0  0  0  0  0  0  0  0  0  0  0
    3.7979   -1.2308   -0.8305 H   0  0  0  0  0  0  0  0  0  0  0  0
    3.3793    0.0830    4.0004 H   0  0  0  0  0  0  0  0  0  0  0  0
    3.9016   -3.2665    2.8694 H   0  0  0  0  0  0  0  0  0  0  0  0
    6.7158   -2.3156    1.1248 H   0  0  0  0  0  0  0  0  0  0  0  0
    6.8762   -3.9886    1.7713 H   0  0  0  0  0  0  0  0  0  0  0  0
    5.4459   -4.5400   -1.5493 H   0  0  0  0  0  0  0  0  0  0  0  0
    5.6302   -2.7522   -1.4829 H   0  0  0  0  0  0  0  0  0  0  0  0
  1  2  1  0
  1 25  1  0
  1 26  1  0
  1 27  1  0
  2 24  1  0
  2  3  2  0
  3  4  1  0
  4  5  1  0
  5  6  1  0
  5 24  2  0
  6 11  1  0
  6  7  2  0
  7  8  1  0
  8  9  2  0
  8 28  1  0
  9 10  1  0
  9 29  1  0
 10 20  1  0
 10 11  2  0
 11 12  1  0
 12 13  1  0
 13 14  1  0
 13 30  1  0
 13 31  1  0
 14 19  1  1
 14 15  1  0
 14 20  1  0
 15 16  1  0
 15 32  1  0
 15 33  1  0
 16 17  1  0
 17 18  2  3
 17 19  1  0
 18 34  1  0
 19 35  1  0
 20 23  1  0
 20 21  1  0
 21 22  1  0
 21 36  1  0
 21 37  1  0
 22 23  1  0
 23 38  1  0
 23 39  1  0
M  END
>  <i_m_ct_stereo_status>  (378) 
1

>  <s_m_source_file>  (378) 
/var/tmp/pbs.5083858.sched01/tmpomdzics0/155fiydj0oo.sdf

>  <i_m_source_file_index>  (378) 
3

>  <i_lp_mmshare_version>  (378) 
48012

>  <i_f3d_flags>  (378) 
0

>  <s_epik_input>  (378) 
W0NIM11jMW5vYyhuMSktYyhuW2NIXVtjSF0yKWMoT1tDSDJdMyljMkM0KFtDSDJdT1tDSDJdNClbQ0BAXTM1W0NIMl1TL0MoPU5cW0hdKVtOSF01

>  <s_epik_cmdline>  (378) 
J2VwaWtfcHl0aG9uJywgJy1waHQnLCAnMi4wJywgJy1waCcsICc3LjAnLCAnLXRuJywgJzgnLCAnLW1hJywgJzIwMCcsICctaW1hZScsICc8aW5maWxlLm1hZT4nLCAnLW9tYWUnLCAnPG91dGZpbGUubWFlPic=

>  <r_epik_Ionization_Penalty>  (378) 
1.1149

>  <r_epik_Ionization_Penalty_Charging>  (378) 
0

>  <r_epik_Ionization_Penalty_Neutral>  (378) 
1.1149

>  <r_epik_State_Penalty>  (378) 
1.50977

>  <r_epik_Charging_Adjusted_Penalty>  (378) 
1.50977

>  <i_epik_Tot_Q>  (378) 
0

>  <i_epik_Tot_abs_Q>  (378) 
0

>  <s_epik_Chemistry_Notes>  (378) 
This compound has an imine and may undergo hydrolysis.

>  <s_lp_Force_Field>  (378) 
OPLS3e

>  <r_lp_Energy>  (378) 
19.7102

>  <b_lp_Chiralities_Consistent>  (378) 
1

>  <s_lp_Variant>  (378) 
108:0-3

>  <s_i_glide_gridfile>  (378) 
pfpi4k_grid

>  <i_i_glide_lignum>  (378) 
3

>  <i_i_glide_rotatable_bonds>  (378) 
1

>  <r_i_docking_score>  (378) 
-3.60061

>  <r_i_glide_ligand_efficiency>  (378) 
-0.150026

>  <r_i_glide_ligand_efficiency_sa>  (378) 
-0.432748

>  <r_i_glide_ligand_efficiency_ln>  (378) 
-0.861792

>  <r_i_glide_gscore>  (378) 
-3.60061

>  <r_i_glide_lipo>  (378) 
-0.478824

>  <r_i_glide_hbond>  (378) 
-0.000884419

>  <r_i_glide_metal>  (378) 
-0

>  <r_i_glide_rewards>  (378) 
-1.05669

>  <r_i_glide_evdw>  (378) 
-26.9006

>  <r_i_glide_ecoul>  (378) 
-4.20592

>  <r_i_glide_erotb>  (378) 
0.159274

>  <r_i_glide_esite>  (378) 
-0.247571

>  <r_i_glide_emodel>  (378) 
-37.2766

>  <r_i_glide_energy>  (378) 
-31.1065

>  <r_i_glide_einternal>  (378) 
2.33152

>  <r_i_glide_intrahb_reward>  (378) 
-0

>  <i_i_glide_confnum>  (378) 
3

>  <i_i_glide_posenum>  (378) 
19

>  <r_i_glide_eff_state_penalty>  (378) 
0

>  <ligand_id>  (378) 
108

>  <original_smiles>  (378) 
Cc1noc(-c2nccc3c2OCC2(CSC(=N)N2)C32COC2)n1

>  <smiles>  (378) 
[H]N=C1SC([H])([H])C2(N1[H])C([H])([H])Oc1c(-c3nc(C([H])([H])[H])no3)nc([H])c([H])c1C21C([H])([H])OC1([H])[H]

$$$$
108:2:2
     RDKit          3D

 39 43  0  0  1  0  0  0  0  0999 V2000
   -0.4664   -7.7072    4.5271 C   0  0  0  0  0  0  0  0  0  0  0  0
    0.2512   -6.7722    3.6264 C   0  0  0  0  0  0  0  0  0  0  0  0
    0.2639   -6.9586    2.3143 N   0  0  0  0  0  0  0  0  0  0  0  0
    1.0724   -5.9098    1.8577 O   0  0  0  0  0  0  0  0  0  0  0  0
    1.4096   -5.1794    2.9600 C   0  0  0  0  0  0  0  0  0  0  0  0
    2.2382   -3.9790    2.8345 C   0  0  0  0  0  0  0  0  0  0  0  0
    2.0639   -3.0757    3.8066 N   0  0  0  0  0  0  0  0  0  0  0  0
    2.7899   -1.9482    3.7630 C   0  0  0  0  0  0  0  0  0  0  0  0
    3.7057   -1.6540    2.7400 C   0  0  0  0  0  0  0  0  0  0  0  0
    3.8600   -2.5654    1.6840 C   0  0  0  0  0  0  0  0  0  0  0  0
    3.1216   -3.7838    1.7318 C   0  0  0  0  0  0  0  0  0  0  0  0
    3.2294   -4.7438    0.7440 O   0  0  0  0  0  0  0  0  0  0  0  0
    4.3656   -4.6338   -0.1552 C   0  0  0  0  0  0  0  0  0  0  0  0
    4.5503   -3.1875   -0.6760 C   0  0  1  0  0  0  0  0  0  0  0  0
    5.7063   -3.1598   -1.7409 C   0  0  0  0  0  0  0  0  0  0  0  0
    4.9717   -3.3992   -3.3615 S   0  0  0  0  0  0  0  0  0  0  0  0
    3.3373   -2.9035   -2.7698 C   0  0  0  0  0  0  0  0  0  0  0  0
    2.2989   -2.6719   -3.4898 N   0  0  0  0  0  0  0  0  0  0  0  0
    3.3478   -2.7701   -1.4018 N   0  0  0  0  0  0  0  0  0  0  0  0
    4.8071   -2.2281    0.5370 C   0  0  0  0  0  0  0  0  0  0  0  0
    5.0008   -0.7368    0.1637 C   0  0  0  0  0  0  0  0  0  0  0  0
    6.4591   -0.8861    0.2267 O   0  0  0  0  0  0  0  0  0  0  0  0
    6.2797   -2.1151    1.0040 C   0  0  0  0  0  0  0  0  0  0  0  0
    0.8935   -5.6681    4.0906 N   0  0  0  0  0  0  0  0  0  0  0  0
   -0.6980   -8.6387    4.0135 H   0  0  0  0  0  0  0  0  0  0  0  0
   -1.3986   -7.2536    4.8427 H   0  0  0  0  0  0  0  0  0  0  0  0
    0.1431   -7.9294    5.4027 H   0  0  0  0  0  0  0  0  0  0  0  0
    2.6466   -1.2391    4.5689 H   0  0  0  0  0  0  0  0  0  0  0  0
    4.2583   -0.7145    2.8149 H   0  0  0  0  0  0  0  0  0  0  0  0
    5.2601   -5.0109    0.3537 H   0  0  0  0  0  0  0  0  0  0  0  0
    4.1937   -5.2949   -0.9962 H   0  0  0  0  0  0  0  0  0  0  0  0
    6.1866   -2.1791   -1.7898 H   0  0  0  0  0  0  0  0  0  0  0  0
    6.5185   -3.8539   -1.5137 H   0  0  0  0  0  0  0  0  0  0  0  0
    2.5071   -2.7875   -4.4629 H   0  0  0  0  0  0  0  0  0  0  0  0
    2.4843   -2.6119   -0.8959 H   0  0  0  0  0  0  0  0  0  0  0  0
    4.6542   -0.5226   -0.8493 H   0  0  0  0  0  0  0  0  0  0  0  0
    4.6338   -0.0071    0.8880 H   0  0  0  0  0  0  0  0  0  0  0  0
    6.3927   -1.9424    2.0775 H   0  0  0  0  0  0  0  0  0  0  0  0
    6.9225   -2.9287    0.6511 H   0  0  0  0  0  0  0  0  0  0  0  0
  1  2  1  0
  1 25  1  0
  1 26  1  0
  1 27  1  0
  2 24  1  0
  2  3  2  0
  3  4  1  0
  4  5  1  0
  5  6  1  0
  5 24  2  0
  6 11  1  0
  6  7  2  0
  7  8  1  0
  8  9  2  0
  8 28  1  0
  9 10  1  0
  9 29  1  0
 10 20  1  0
 10 11  2  0
 11 12  1  0
 12 13  1  0
 13 14  1  0
 13 30  1  0
 13 31  1  0
 14 19  1  6
 14 15  1  0
 14 20  1  0
 15 16  1  0
 15 32  1  0
 15 33  1  0
 16 17  1  0
 17 18  2  3
 17 19  1  0
 18 34  1  0
 19 35  1  0
 20 23  1  0
 20 21  1  0
 21 22  1  0
 21 36  1  0
 21 37  1  0
 22 23  1  0
 23 38  1  0
 23 39  1  0
M  END
>  <i_m_ct_stereo_status>  (379) 
1

>  <s_m_source_file>  (379) 
/var/tmp/pbs.5083858.sched01/tmpomdzics0/155fiydj0oo.sdf

>  <i_m_source_file_index>  (379) 
3

>  <i_lp_mmshare_version>  (379) 
48012

>  <i_f3d_flags>  (379) 
0

>  <s_epik_input>  (379) 
W0NIM11jMW5vYyhuMSktYyhuW2NIXVtjSF0yKWMoT1tDSDJdMyljMkM0KFtDSDJdT1tDSDJdNClbQ0BAXTM1W0NIMl1TL0MoPU5cW0hdKVtOSF01

>  <s_epik_cmdline>  (379) 
J2VwaWtfcHl0aG9uJywgJy1waHQnLCAnMi4wJywgJy1waCcsICc3LjAnLCAnLXRuJywgJzgnLCAnLW1hJywgJzIwMCcsICctaW1hZScsICc8aW5maWxlLm1hZT4nLCAnLW9tYWUnLCAnPG91dGZpbGUubWFlPic=

>  <r_epik_Ionization_Penalty>  (379) 
1.1149

>  <r_epik_Ionization_Penalty_Charging>  (379) 
0

>  <r_epik_Ionization_Penalty_Neutral>  (379) 
1.1149

>  <r_epik_State_Penalty>  (379) 
1.50977

>  <r_epik_Charging_Adjusted_Penalty>  (379) 
1.50977

>  <i_epik_Tot_Q>  (379) 
0

>  <i_epik_Tot_abs_Q>  (379) 
0

>  <s_epik_Chemistry_Notes>  (379) 
This compound has an imine and may undergo hydrolysis.

>  <s_lp_Force_Field>  (379) 
OPLS3e

>  <r_lp_Energy>  (379) 
19.7102

>  <b_lp_Chiralities_Consistent>  (379) 
1

>  <s_lp_Variant>  (379) 
108:0-3

>  <s_i_glide_gridfile>  (379) 
pfpi4k_grid

>  <i_i_glide_lignum>  (379) 
3

>  <i_i_glide_rotatable_bonds>  (379) 
1

>  <r_i_docking_score>  (379) 
-3.55202

>  <r_i_glide_ligand_efficiency>  (379) 
-0.148001

>  <r_i_glide_ligand_efficiency_sa>  (379) 
-0.426908

>  <r_i_glide_ligand_efficiency_ln>  (379) 
-0.85016

>  <r_i_glide_gscore>  (379) 
-3.55202

>  <r_i_glide_lipo>  (379) 
-0.570053

>  <r_i_glide_hbond>  (379) 
-0.0860089

>  <r_i_glide_metal>  (379) 
-0

>  <r_i_glide_rewards>  (379) 
-1.05425

>  <r_i_glide_evdw>  (379) 
-28.22

>  <r_i_glide_ecoul>  (379) 
-2.25889

>  <r_i_glide_erotb>  (379) 
0.159274

>  <r_i_glide_esite>  (379) 
-0.251146

>  <r_i_glide_emodel>  (379) 
-36.3359

>  <r_i_glide_energy>  (379) 
-30.4789

>  <r_i_glide_einternal>  (379) 
2.28931

>  <r_i_glide_intrahb_reward>  (379) 
-0

>  <i_i_glide_confnum>  (379) 
5

>  <i_i_glide_posenum>  (379) 
23

>  <r_i_glide_eff_state_penalty>  (379) 
0

>  <ligand_id>  (379) 
108

>  <original_smiles>  (379) 
Cc1noc(-c2nccc3c2OCC2(CSC(=N)N2)C32COC2)n1

>  <smiles>  (379) 
[H]N=C1SC([H])([H])C2(N1[H])C([H])([H])Oc1c(-c3nc(C([H])([H])[H])no3)nc([H])c([H])c1C21C([H])([H])OC1([H])[H]

$$$$
108:3:0
     RDKit          3D

 39 43  0  0  1  0  0  0  0  0999 V2000
   -0.1530   -8.1381    2.1088 C   0  0  0  0  0  0  0  0  0  0  0  0
    0.3809   -6.9209    2.7530 C   0  0  0  0  0  0  0  0  0  0  0  0
    0.0904   -6.5778    3.9971 N   0  0  0  0  0  0  0  0  0  0  0  0
    0.7850   -5.3747    4.1675 O   0  0  0  0  0  0  0  0  0  0  0  0
    1.4149   -5.1308    2.9755 C   0  0  0  0  0  0  0  0  0  0  0  0
    2.2334   -3.9162    2.8631 C   0  0  0  0  0  0  0  0  0  0  0  0
    2.0777   -3.0153    3.8323 N   0  0  0  0  0  0  0  0  0  0  0  0
    2.8012   -1.8809    3.7789 C   0  0  0  0  0  0  0  0  0  0  0  0
    3.7112   -1.6019    2.7521 C   0  0  0  0  0  0  0  0  0  0  0  0
    3.8668   -2.5234    1.7048 C   0  0  0  0  0  0  0  0  0  0  0  0
    3.1279   -3.7340    1.7626 C   0  0  0  0  0  0  0  0  0  0  0  0
    3.2294   -4.7026    0.7798 O   0  0  0  0  0  0  0  0  0  0  0  0
    4.3641   -4.6075   -0.1233 C   0  0  0  0  0  0  0  0  0  0  0  0
    4.5506   -3.1773   -0.6605 C   0  0  1  0  0  0  0  0  0  0  0  0
    5.7150   -3.1627   -1.7044 C   0  0  0  0  0  0  0  0  0  0  0  0
    4.9822   -3.4050   -3.3303 S   0  0  0  0  0  0  0  0  0  0  0  0
    3.3454   -2.8917   -2.7717 C   0  0  0  0  0  0  0  0  0  0  0  0
    2.3018   -2.6595   -3.5069 N   0  0  0  0  0  0  0  0  0  0  0  0
    3.3511   -2.7755   -1.4022 N   0  0  0  0  0  0  0  0  0  0  0  0
    4.8108   -2.2107    0.5487 C   0  0  0  0  0  0  0  0  0  0  0  0
    5.0071   -0.7274    0.1628 C   0  0  0  0  0  0  0  0  0  0  0  0
    6.4660   -0.8700    0.2334 O   0  0  0  0  0  0  0  0  0  0  0  0
    6.2828   -2.0974    1.0125 C   0  0  0  0  0  0  0  0  0  0  0  0
    1.1555   -6.0528    2.0610 N   0  0  0  0  0  0  0  0  0  0  0  0
   -0.9612   -8.5671    2.6934 H   0  0  0  0  0  0  0  0  0  0  0  0
    0.6404   -8.8695    2.0076 H   0  0  0  0  0  0  0  0  0  0  0  0
   -0.5169   -7.8650    1.1195 H   0  0  0  0  0  0  0  0  0  0  0  0
    2.6678   -1.1535    4.5727 H   0  0  0  0  0  0  0  0  0  0  0  0
    4.2665   -0.6702    2.8107 H   0  0  0  0  0  0  0  0  0  0  0  0
    5.2495   -4.9914    0.3852 H   0  0  0  0  0  0  0  0  0  0  0  0
    4.1753   -5.2775   -0.9486 H   0  0  0  0  0  0  0  0  0  0  0  0
    6.1958   -2.1839   -1.7823 H   0  0  0  0  0  0  0  0  0  0  0  0
    6.5256   -3.8669   -1.4813 H   0  0  0  0  0  0  0  0  0  0  0  0
    2.5163   -2.6139   -0.8598 H   0  0  0  0  0  0  0  0  0  0  0  0
    4.6592   -0.5162   -0.8427 H   0  0  0  0  0  0  0  0  0  0  0  0
    4.6501    0.0166    0.8683 H   0  0  0  0  0  0  0  0  0  0  0  0
    6.4028   -1.9091    2.0767 H   0  0  0  0  0  0  0  0  0  0  0  0
    6.9222   -2.9118    0.6696 H   0  0  0  0  0  0  0  0  0  0  0  0
    1.5223   -2.3672   -2.9335 H   0  0  0  0  0  0  0  0  0  0  0  0
  1  2  1  0
  1 25  1  0
  1 26  1  0
  1 27  1  0
  2 24  1  0
  2  3  2  0
  3  4  1  0
  4  5  1  0
  5  6  1  0
  5 24  2  0
  6 11  1  0
  6  7  2  0
  7  8  1  0
  8  9  2  0
  8 28  1  0
  9 10  1  0
  9 29  1  0
 10 20  1  0
 10 11  2  0
 11 12  1  0
 12 13  1  0
 13 14  1  0
 13 30  1  0
 13 31  1  0
 14 19  1  6
 14 15  1  0
 14 20  1  0
 15 16  1  0
 15 32  1  0
 15 33  1  0
 16 17  1  0
 17 18  2  3
 17 19  1  0
 18 39  1  0
 19 34  1  0
 20 23  1  0
 20 21  1  0
 21 22  1  0
 21 35  1  0
 21 36  1  0
 22 23  1  0
 23 37  1  0
 23 38  1  0
M  END
>  <i_m_ct_stereo_status>  (380) 
1

>  <s_m_source_file>  (380) 
/var/tmp/pbs.5083858.sched01/tmpomdzics0/155fiydj0oo.sdf

>  <i_m_source_file_index>  (380) 
4

>  <i_lp_mmshare_version>  (380) 
48012

>  <i_f3d_flags>  (380) 
0

>  <s_epik_input>  (380) 
W0NIM11jMW5vYyhuMSktYyhuW2NIXVtjSF0yKWMoT1tDSDJdMyljMkM0KFtDSDJdT1tDSDJdNClbQ0BAXTM1W0NIMl1TL0MoPU5cW0hdKVtOSF01

>  <s_epik_cmdline>  (380) 
J2VwaWtfcHl0aG9uJywgJy1waHQnLCAnMi4wJywgJy1waCcsICc3LjAnLCAnLXRuJywgJzgnLCAnLW1hJywgJzIwMCcsICctaW1hZScsICc8aW5maWxlLm1hZT4nLCAnLW9tYWUnLCAnPG91dGZpbGUubWFlPic=

>  <r_epik_Ionization_Penalty>  (380) 
1.1149

>  <r_epik_Ionization_Penalty_Charging>  (380) 
0

>  <r_epik_Ionization_Penalty_Neutral>  (380) 
1.1149

>  <r_epik_State_Penalty>  (380) 
1.50977

>  <r_epik_Charging_Adjusted_Penalty>  (380) 
1.50977

>  <i_epik_Tot_Q>  (380) 
0

>  <i_epik_Tot_abs_Q>  (380) 
0

>  <s_epik_Chemistry_Notes>  (380) 
This compound has an imine and may undergo hydrolysis.

>  <s_lp_Force_Field>  (380) 
OPLS3e

>  <r_lp_Energy>  (380) 
20.456

>  <b_lp_Chiralities_Consistent>  (380) 
1

>  <s_lp_Variant>  (380) 
108:0-4

>  <s_i_glide_gridfile>  (380) 
pfpi4k_grid

>  <i_i_glide_lignum>  (380) 
4

>  <i_i_glide_rotatable_bonds>  (380) 
1

>  <r_i_docking_score>  (380) 
-3.75745

>  <r_i_glide_ligand_efficiency>  (380) 
-0.156561

>  <r_i_glide_ligand_efficiency_sa>  (380) 
-0.451599

>  <r_i_glide_ligand_efficiency_ln>  (380) 
-0.899331

>  <r_i_glide_gscore>  (380) 
-3.75745

>  <r_i_glide_lipo>  (380) 
-0.563071

>  <r_i_glide_hbond>  (380) 
-0.0684347

>  <r_i_glide_metal>  (380) 
-0

>  <r_i_glide_rewards>  (380) 
-1.05425

>  <r_i_glide_evdw>  (380) 
-28.5705

>  <r_i_glide_ecoul>  (380) 
-4.27682

>  <r_i_glide_erotb>  (380) 
0.159274

>  <r_i_glide_esite>  (380) 
-0.160926

>  <r_i_glide_emodel>  (380) 
-40.3909

>  <r_i_glide_energy>  (380) 
-32.8474

>  <r_i_glide_einternal>  (380) 
0.207231

>  <r_i_glide_intrahb_reward>  (380) 
-0

>  <i_i_glide_confnum>  (380) 
4

>  <i_i_glide_posenum>  (380) 
16

>  <r_i_glide_eff_state_penalty>  (380) 
0

>  <ligand_id>  (380) 
108

>  <original_smiles>  (380) 
Cc1noc(-c2nccc3c2OCC2(CSC(=N)N2)C32COC2)n1

>  <smiles>  (380) 
[H]N=C1SC([H])([H])C2(N1[H])C([H])([H])Oc1c(-c3nc(C([H])([H])[H])no3)nc([H])c([H])c1C21C([H])([H])OC1([H])[H]

$$$$
108:3:1
     RDKit          3D

 39 43  0  0  1  0  0  0  0  0999 V2000
   -0.9158   -8.6097    3.6700 C   0  0  0  0  0  0  0  0  0  0  0  0
   -0.1688   -7.5105    3.0130 C   0  0  0  0  0  0  0  0  0  0  0  0
   -0.0939   -7.4081    1.6949 N   0  0  0  0  0  0  0  0  0  0  0  0
    0.7367   -6.2895    1.5070 O   0  0  0  0  0  0  0  0  0  0  0  0
    1.0376   -5.8295    2.7483 C   0  0  0  0  0  0  0  0  0  0  0  0
    1.8636   -4.6378    2.8900 C   0  0  0  0  0  0  0  0  0  0  0  0
    1.5756   -3.8847    3.9846 N   0  0  0  0  0  0  0  0  0  0  0  0
    2.2885   -2.7576    4.1877 C   0  0  0  0  0  0  0  0  0  0  0  0
    3.2926   -2.3154    3.3150 C   0  0  0  0  0  0  0  0  0  0  0  0
    3.5780   -3.0739    2.1554 C   0  0  0  0  0  0  0  0  0  0  0  0
    2.8594   -4.2781    1.9307 C   0  0  0  0  0  0  0  0  0  0  0  0
    3.0821   -5.0583    0.8256 O   0  0  0  0  0  0  0  0  0  0  0  0
    4.2658   -4.8312    0.0915 C   0  0  0  0  0  0  0  0  0  0  0  0
    4.5384   -3.3235   -0.1843 C   0  0  1  0  0  0  0  0  0  0  0  0
    5.8077   -3.1542   -1.0700 C   0  0  0  0  0  0  0  0  0  0  0  0
    5.2560   -3.0691   -2.7866 S   0  0  0  0  0  0  0  0  0  0  0  0
    3.5508   -2.6567   -2.3373 C   0  0  0  0  0  0  0  0  0  0  0  0
    2.5911   -2.2771   -3.1112 N   0  0  0  0  0  0  0  0  0  0  0  0
    3.4214   -2.7760   -0.9664 N   0  0  0  0  0  0  0  0  0  0  0  0
    4.6609   -2.5939    1.1663 C   0  0  0  0  0  0  0  0  0  0  0  0
    4.8413   -1.0697    1.1318 C   0  0  0  0  0  0  0  0  0  0  0  0
    5.8648   -1.1312    2.1301 O   0  0  0  0  0  0  0  0  0  0  0  0
    6.0334   -2.5272    1.8586 C   0  0  0  0  0  0  0  0  0  0  0  0
    0.4460   -6.5244    3.7214 N   0  0  0  0  0  0  0  0  0  0  0  0
   -1.1308   -9.4129    2.9633 H   0  0  0  0  0  0  0  0  0  0  0  0
   -1.8646   -8.2277    4.0437 H   0  0  0  0  0  0  0  0  0  0  0  0
   -0.3379   -9.0141    4.5032 H   0  0  0  0  0  0  0  0  0  0  0  0
    2.0556   -2.1940    5.0636 H   0  0  0  0  0  0  0  0  0  0  0  0
    3.8164   -1.4041    3.5504 H   0  0  0  0  0  0  0  0  0  0  0  0
    5.1225   -5.2868    0.6187 H   0  0  0  0  0  0  0  0  0  0  0  0
    4.1840   -5.3468   -0.8671 H   0  0  0  0  0  0  0  0  0  0  0  0
    6.2969   -2.1937   -0.8952 H   0  0  0  0  0  0  0  0  0  0  0  0
    6.5641   -3.9215   -0.8957 H   0  0  0  0  0  0  0  0  0  0  0  0
    2.5256   -2.7110   -0.4952 H   0  0  0  0  0  0  0  0  0  0  0  0
    5.2021   -0.6758    0.1682 H   0  0  0  0  0  0  0  0  0  0  0  0
    3.9255   -0.5321    1.4394 H   0  0  0  0  0  0  0  0  0  0  0  0
    6.0904   -3.1693    2.7564 H   0  0  0  0  0  0  0  0  0  0  0  0
    6.9141   -2.7083    1.2183 H   0  0  0  0  0  0  0  0  0  0  0  0
    1.7585   -2.0760   -2.5678 H   0  0  0  0  0  0  0  0  0  0  0  0
  1  2  1  0
  1 25  1  0
  1 26  1  0
  1 27  1  0
  2 24  1  0
  2  3  2  0
  3  4  1  0
  4  5  1  0
  5  6  1  0
  5 24  2  0
  6 11  1  0
  6  7  2  0
  7  8  1  0
  8  9  2  0
  8 28  1  0
  9 10  1  0
  9 29  1  0
 10 20  1  0
 10 11  2  0
 11 12  1  0
 12 13  1  0
 13 14  1  0
 13 30  1  0
 13 31  1  0
 14 19  1  6
 14 15  1  0
 14 20  1  0
 15 16  1  0
 15 32  1  0
 15 33  1  0
 16 17  1  0
 17 18  2  3
 17 19  1  0
 18 39  1  0
 19 34  1  0
 20 23  1  0
 20 21  1  0
 21 22  1  0
 21 35  1  0
 21 36  1  0
 22 23  1  0
 23 37  1  0
 23 38  1  0
M  END
>  <i_m_ct_stereo_status>  (381) 
1

>  <s_m_source_file>  (381) 
/var/tmp/pbs.5083858.sched01/tmpomdzics0/155fiydj0oo.sdf

>  <i_m_source_file_index>  (381) 
4

>  <i_lp_mmshare_version>  (381) 
48012

>  <i_f3d_flags>  (381) 
0

>  <s_epik_input>  (381) 
W0NIM11jMW5vYyhuMSktYyhuW2NIXVtjSF0yKWMoT1tDSDJdMyljMkM0KFtDSDJdT1tDSDJdNClbQ0BAXTM1W0NIMl1TL0MoPU5cW0hdKVtOSF01

>  <s_epik_cmdline>  (381) 
J2VwaWtfcHl0aG9uJywgJy1waHQnLCAnMi4wJywgJy1waCcsICc3LjAnLCAnLXRuJywgJzgnLCAnLW1hJywgJzIwMCcsICctaW1hZScsICc8aW5maWxlLm1hZT4nLCAnLW9tYWUnLCAnPG91dGZpbGUubWFlPic=

>  <r_epik_Ionization_Penalty>  (381) 
1.1149

>  <r_epik_Ionization_Penalty_Charging>  (381) 
0

>  <r_epik_Ionization_Penalty_Neutral>  (381) 
1.1149

>  <r_epik_State_Penalty>  (381) 
1.50977

>  <r_epik_Charging_Adjusted_Penalty>  (381) 
1.50977

>  <i_epik_Tot_Q>  (381) 
0

>  <i_epik_Tot_abs_Q>  (381) 
0

>  <s_epik_Chemistry_Notes>  (381) 
This compound has an imine and may undergo hydrolysis.

>  <s_lp_Force_Field>  (381) 
OPLS3e

>  <r_lp_Energy>  (381) 
20.456

>  <b_lp_Chiralities_Consistent>  (381) 
1

>  <s_lp_Variant>  (381) 
108:0-4

>  <s_i_glide_gridfile>  (381) 
pfpi4k_grid

>  <i_i_glide_lignum>  (381) 
4

>  <i_i_glide_rotatable_bonds>  (381) 
1

>  <r_i_docking_score>  (381) 
-3.61761

>  <r_i_glide_ligand_efficiency>  (381) 
-0.150734

>  <r_i_glide_ligand_efficiency_sa>  (381) 
-0.434791

>  <r_i_glide_ligand_efficiency_ln>  (381) 
-0.86586

>  <r_i_glide_gscore>  (381) 
-3.61761

>  <r_i_glide_lipo>  (381) 
-0.467847

>  <r_i_glide_hbond>  (381) 
-0.0665576

>  <r_i_glide_metal>  (381) 
-0

>  <r_i_glide_rewards>  (381) 
-1.05425

>  <r_i_glide_evdw>  (381) 
-28.9885

>  <r_i_glide_ecoul>  (381) 
-3.01267

>  <r_i_glide_erotb>  (381) 
0.159274

>  <r_i_glide_esite>  (381) 
-0.286911

>  <r_i_glide_emodel>  (381) 
-38.375

>  <r_i_glide_energy>  (381) 
-32.0011

>  <r_i_glide_einternal>  (381) 
2.34735

>  <r_i_glide_intrahb_reward>  (381) 
-0

>  <i_i_glide_confnum>  (381) 
2

>  <i_i_glide_posenum>  (381) 
31

>  <r_i_glide_eff_state_penalty>  (381) 
0

>  <ligand_id>  (381) 
108

>  <original_smiles>  (381) 
Cc1noc(-c2nccc3c2OCC2(CSC(=N)N2)C32COC2)n1

>  <smiles>  (381) 
[H]N=C1SC([H])([H])C2(N1[H])C([H])([H])Oc1c(-c3nc(C([H])([H])[H])no3)nc([H])c([H])c1C21C([H])([H])OC1([H])[H]

$$$$
108:3:2
     RDKit          3D

 39 43  0  0  1  0  0  0  0  0999 V2000
   -0.8880   -8.8946    2.5184 C   0  0  0  0  0  0  0  0  0  0  0  0
    0.2763   -7.9784    2.3830 C   0  0  0  0  0  0  0  0  0  0  0  0
    1.4832   -8.4406    2.0908 N   0  0  0  0  0  0  0  0  0  0  0  0
    2.2732   -7.2884    2.0609 O   0  0  0  0  0  0  0  0  0  0  0  0
    1.4402   -6.2576    2.3584 C   0  0  0  0  0  0  0  0  0  0  0  0
    1.9695   -4.9006    2.4435 C   0  0  0  0  0  0  0  0  0  0  0  0
    1.4151   -4.1407    3.3980 N   0  0  0  0  0  0  0  0  0  0  0  0
    1.8374   -2.8759    3.5261 C   0  0  0  0  0  0  0  0  0  0  0  0
    2.8074   -2.3043    2.6931 C   0  0  0  0  0  0  0  0  0  0  0  0
    3.3571   -3.0676    1.6493 C   0  0  0  0  0  0  0  0  0  0  0  0
    2.9456   -4.4205    1.5280 C   0  0  0  0  0  0  0  0  0  0  0  0
    3.4107   -5.2416    0.5154 O   0  0  0  0  0  0  0  0  0  0  0  0
    4.6018   -4.8032   -0.1864 C   0  0  0  0  0  0  0  0  0  0  0  0
    4.5263   -3.3153   -0.5960 C   0  0  1  0  0  0  0  0  0  0  0  0
    5.7994   -2.9423   -1.4146 C   0  0  0  0  0  0  0  0  0  0  0  0
    5.3979   -3.1393   -3.1358 S   0  0  0  0  0  0  0  0  0  0  0  0
    3.6240   -3.0734   -2.8573 C   0  0  0  0  0  0  0  0  0  0  0  0
    2.6817   -3.0197   -3.7600 N   0  0  0  0  0  0  0  0  0  0  0  0
    3.3946   -3.1108   -1.5095 N   0  0  0  0  0  0  0  0  0  0  0  0
    4.3556   -2.4329    0.6891 C   0  0  0  0  0  0  0  0  0  0  0  0
    4.2328   -0.9153    0.4219 C   0  0  0  0  0  0  0  0  0  0  0  0
    5.6486   -0.7132    0.7423 O   0  0  0  0  0  0  0  0  0  0  0  0
    5.6606   -2.0190    1.4045 C   0  0  0  0  0  0  0  0  0  0  0  0
    0.1680   -6.6331    2.5321 N   0  0  0  0  0  0  0  0  0  0  0  0
   -0.5579   -9.9298    2.5703 H   0  0  0  0  0  0  0  0  0  0  0  0
   -1.5346   -8.7901    1.6542 H   0  0  0  0  0  0  0  0  0  0  0  0
   -1.4444   -8.6522    3.4235 H   0  0  0  0  0  0  0  0  0  0  0  0
    1.4079   -2.2760    4.3221 H   0  0  0  0  0  0  0  0  0  0  0  0
    3.0970   -1.2775    2.8944 H   0  0  0  0  0  0  0  0  0  0  0  0
    5.4653   -5.0113    0.4500 H   0  0  0  0  0  0  0  0  0  0  0  0
    4.6882   -5.4292   -1.0699 H   0  0  0  0  0  0  0  0  0  0  0  0
    6.0375   -1.8810   -1.3484 H   0  0  0  0  0  0  0  0  0  0  0  0
    6.7050   -3.4896   -1.1137 H   0  0  0  0  0  0  0  0  0  0  0  0
    2.4828   -3.2446   -1.1039 H   0  0  0  0  0  0  0  0  0  0  0  0
    4.0012   -0.6968   -0.6160 H   0  0  0  0  0  0  0  0  0  0  0  0
    3.5950   -0.3449    1.0892 H   0  0  0  0  0  0  0  0  0  0  0  0
    5.5671   -1.9110    2.4816 H   0  0  0  0  0  0  0  0  0  0  0  0
    6.5234   -2.6267    1.1331 H   0  0  0  0  0  0  0  0  0  0  0  0
    1.7686   -3.0291   -3.3322 H   0  0  0  0  0  0  0  0  0  0  0  0
  1  2  1  0
  1 25  1  0
  1 26  1  0
  1 27  1  0
  2 24  1  0
  2  3  2  0
  3  4  1  0
  4  5  1  0
  5  6  1  0
  5 24  2  0
  6 11  1  0
  6  7  2  0
  7  8  1  0
  8  9  2  0
  8 28  1  0
  9 10  1  0
  9 29  1  0
 10 20  1  0
 10 11  2  0
 11 12  1  0
 12 13  1  0
 13 14  1  0
 13 30  1  0
 13 31  1  0
 14 19  1  6
 14 15  1  0
 14 20  1  0
 15 16  1  0
 15 32  1  0
 15 33  1  0
 16 17  1  0
 17 18  2  3
 17 19  1  0
 18 39  1  0
 19 34  1  0
 20 23  1  0
 20 21  1  0
 21 22  1  0
 21 35  1  0
 21 36  1  0
 22 23  1  0
 23 37  1  0
 23 38  1  0
M  END
>  <i_m_ct_stereo_status>  (382) 
1

>  <s_m_source_file>  (382) 
/var/tmp/pbs.5083858.sched01/tmpomdzics0/155fiydj0oo.sdf

>  <i_m_source_file_index>  (382) 
4

>  <i_lp_mmshare_version>  (382) 
48012

>  <i_f3d_flags>  (382) 
0

>  <s_epik_input>  (382) 
W0NIM11jMW5vYyhuMSktYyhuW2NIXVtjSF0yKWMoT1tDSDJdMyljMkM0KFtDSDJdT1tDSDJdNClbQ0BAXTM1W0NIMl1TL0MoPU5cW0hdKVtOSF01

>  <s_epik_cmdline>  (382) 
J2VwaWtfcHl0aG9uJywgJy1waHQnLCAnMi4wJywgJy1waCcsICc3LjAnLCAnLXRuJywgJzgnLCAnLW1hJywgJzIwMCcsICctaW1hZScsICc8aW5maWxlLm1hZT4nLCAnLW9tYWUnLCAnPG91dGZpbGUubWFlPic=

>  <r_epik_Ionization_Penalty>  (382) 
1.1149

>  <r_epik_Ionization_Penalty_Charging>  (382) 
0

>  <r_epik_Ionization_Penalty_Neutral>  (382) 
1.1149

>  <r_epik_State_Penalty>  (382) 
1.50977

>  <r_epik_Charging_Adjusted_Penalty>  (382) 
1.50977

>  <i_epik_Tot_Q>  (382) 
0

>  <i_epik_Tot_abs_Q>  (382) 
0

>  <s_epik_Chemistry_Notes>  (382) 
This compound has an imine and may undergo hydrolysis.

>  <s_lp_Force_Field>  (382) 
OPLS3e

>  <r_lp_Energy>  (382) 
20.456

>  <b_lp_Chiralities_Consistent>  (382) 
1

>  <s_lp_Variant>  (382) 
108:0-4

>  <s_i_glide_gridfile>  (382) 
pfpi4k_grid

>  <i_i_glide_lignum>  (382) 
4

>  <i_i_glide_rotatable_bonds>  (382) 
1

>  <r_i_docking_score>  (382) 
-3.51157

>  <r_i_glide_ligand_efficiency>  (382) 
-0.146315

>  <r_i_glide_ligand_efficiency_sa>  (382) 
-0.422047

>  <r_i_glide_ligand_efficiency_ln>  (382) 
-0.84048

>  <r_i_glide_gscore>  (382) 
-3.51157

>  <r_i_glide_lipo>  (382) 
-0.437969

>  <r_i_glide_hbond>  (382) 
-0.0995182

>  <r_i_glide_metal>  (382) 
-0

>  <r_i_glide_rewards>  (382) 
-1.05425

>  <r_i_glide_evdw>  (382) 
-30.6633

>  <r_i_glide_ecoul>  (382) 
-3.05028

>  <r_i_glide_erotb>  (382) 
0.159274

>  <r_i_glide_esite>  (382) 
-0.0884034

>  <r_i_glide_emodel>  (382) 
-39.466

>  <r_i_glide_energy>  (382) 
-33.7136

>  <r_i_glide_einternal>  (382) 
2.69405

>  <r_i_glide_intrahb_reward>  (382) 
-0

>  <i_i_glide_confnum>  (382) 
6

>  <i_i_glide_posenum>  (382) 
8

>  <r_i_glide_eff_state_penalty>  (382) 
0

>  <ligand_id>  (382) 
108

>  <original_smiles>  (382) 
Cc1noc(-c2nccc3c2OCC2(CSC(=N)N2)C32COC2)n1

>  <smiles>  (382) 
[H]N=C1SC([H])([H])C2(N1[H])C([H])([H])Oc1c(-c3nc(C([H])([H])[H])no3)nc([H])c([H])c1C21C([H])([H])OC1([H])[H]

$$$$
109:0:0
     RDKit          3D

 65 68  0  0  1  0  0  0  0  0999 V2000
    9.1889   -6.9284    3.7105 C   0  0  0  0  0  0  0  0  0  0  0  0
    8.1351   -6.2299    2.8546 C   0  0  0  0  0  0  0  0  0  0  0  0
    8.4704   -5.6294    1.8511 O   0  0  0  0  0  0  0  0  0  0  0  0
    6.8838   -6.3653    3.3500 O   0  0  0  0  0  0  0  0  0  0  0  0
    5.6701   -5.9526    2.6889 C   0  0  0  0  0  0  0  0  0  0  0  0
    5.1697   -4.4626    2.9926 C   0  0  2  0  0  0  0  0  0  0  0  0
    5.1362   -4.5825    4.5357 C   0  0  0  0  0  0  0  0  0  0  0  0
    3.8265   -5.2794    5.0585 C   0  0  0  0  0  0  0  0  0  0  0  0
    2.8411   -6.2631    4.2308 C   0  0  1  0  0  0  0  0  0  0  0  0
    3.1690   -7.7560    4.5206 C   0  0  0  0  0  0  0  0  0  0  0  0
    1.6788   -6.1503    5.0471 O   0  0  0  0  0  0  0  0  0  0  0  0
    2.3244   -6.0768    2.6934 C   0  0  2  0  0  0  0  0  0  0  0  0
    0.9675   -6.8088    2.4839 C   0  0  0  0  0  0  0  0  0  0  0  0
    3.2419   -6.5440    1.4783 C   0  0  0  0  0  0  0  0  0  0  0  0
    3.8490   -5.6193    0.3065 C   0  0  0  0  0  0  0  0  0  0  0  0
    4.5813   -4.1842    0.2436 C   0  0  1  0  0  0  0  0  0  0  0  0
    4.5933   -3.8882   -1.3135 C   0  0  0  0  0  0  0  0  0  0  0  0
    4.7221   -2.4401   -1.7755 C   0  0  1  0  0  0  0  0  0  0  0  0
    4.5272   -2.3959   -3.1881 O   0  0  0  0  0  0  0  0  0  0  0  0
    3.5903   -1.6921   -1.0982 C   0  0  0  0  0  0  0  0  0  0  0  0
    3.7680   -1.6968    0.4311 C   0  0  1  0  0  0  0  0  0  0  0  0
    4.9829   -0.7871    0.7505 C   0  0  0  0  0  0  0  0  0  0  0  0
    2.6179   -0.9900    0.8786 O   0  0  0  0  0  0  0  0  0  0  0  0
    3.7185   -3.1822    1.0184 C   0  0  2  0  0  0  0  0  0  0  0  0
    3.9376   -3.4716    2.5719 C   0  0  2  0  0  0  0  0  0  0  0  0
    4.1131   -2.1551    3.3682 C   0  0  0  0  0  0  0  0  0  0  0  0
    2.7068   -3.8088    3.1685 O   0  0  0  0  0  0  0  0  0  0  0  0
    1.9477   -4.7763    2.3500 O   0  0  0  0  0  0  0  0  0  0  0  0
    6.0331   -3.9792    0.7823 C   0  0  0  0  0  0  0  0  0  0  0  0
    6.9510   -3.7788   -0.0047 O   0  0  0  0  0  0  0  0  0  0  0  0
    6.1554   -3.8777    2.1625 O   0  0  0  0  0  0  0  0  0  0  0  0
    9.1776   -6.5816    4.7411 H   0  0  0  0  0  0  0  0  0  0  0  0
   10.1642   -6.6897    3.2883 H   0  0  0  0  0  0  0  0  0  0  0  0
    9.0805   -8.0112    3.6753 H   0  0  0  0  0  0  0  0  0  0  0  0
    5.8112   -6.2647    1.6539 H   0  0  0  0  0  0  0  0  0  0  0  0
    5.0149   -6.6454    3.1766 H   0  0  0  0  0  0  0  0  0  0  0  0
    5.9895   -5.0934    4.9699 H   0  0  0  0  0  0  0  0  0  0  0  0
    5.2790   -3.6292    5.0344 H   0  0  0  0  0  0  0  0  0  0  0  0
    4.1241   -5.8114    5.9605 H   0  0  0  0  0  0  0  0  0  0  0  0
    3.2230   -4.4613    5.4490 H   0  0  0  0  0  0  0  0  0  0  0  0
    3.9413   -8.1827    3.8849 H   0  0  0  0  0  0  0  0  0  0  0  0
    2.2917   -8.3954    4.3905 H   0  0  0  0  0  0  0  0  0  0  0  0
    3.4901   -7.9096    5.5500 H   0  0  0  0  0  0  0  0  0  0  0  0
    1.9041   -6.3931    5.9190 H   0  0  0  0  0  0  0  0  0  0  0  0
    0.1923   -6.4634    3.1594 H   0  0  0  0  0  0  0  0  0  0  0  0
    1.0745   -7.8803    2.6128 H   0  0  0  0  0  0  0  0  0  0  0  0
    0.5810   -6.6452    1.4834 H   0  0  0  0  0  0  0  0  0  0  0  0
    3.8811   -7.3815    1.7547 H   0  0  0  0  0  0  0  0  0  0  0  0
    2.5739   -7.1614    0.8760 H   0  0  0  0  0  0  0  0  0  0  0  0
    4.4657   -6.3003   -0.2842 H   0  0  0  0  0  0  0  0  0  0  0  0
    2.9468   -5.4853   -0.2982 H   0  0  0  0  0  0  0  0  0  0  0  0
    5.4228   -4.4162   -1.7802 H   0  0  0  0  0  0  0  0  0  0  0  0
    3.6864   -4.2430   -1.8088 H   0  0  0  0  0  0  0  0  0  0  0  0
    5.6973   -2.0079   -1.5587 H   0  0  0  0  0  0  0  0  0  0  0  0
    3.6835   -2.7558   -3.3821 H   0  0  0  0  0  0  0  0  0  0  0  0
    3.4874   -0.6791   -1.4932 H   0  0  0  0  0  0  0  0  0  0  0  0
    2.6535   -2.1845   -1.3585 H   0  0  0  0  0  0  0  0  0  0  0  0
    5.9387   -1.2929    0.6310 H   0  0  0  0  0  0  0  0  0  0  0  0
    4.9571   -0.3419    1.7405 H   0  0  0  0  0  0  0  0  0  0  0  0
    5.0065    0.0717    0.0796 H   0  0  0  0  0  0  0  0  0  0  0  0
    1.9106   -1.0554    0.2308 H   0  0  0  0  0  0  0  0  0  0  0  0
    2.6975   -3.4571    0.7437 H   0  0  0  0  0  0  0  0  0  0  0  0
    3.8621   -2.2758    4.4147 H   0  0  0  0  0  0  0  0  0  0  0  0
    5.1296   -1.7748    3.3098 H   0  0  0  0  0  0  0  0  0  0  0  0
    3.4195   -1.3789    3.0745 H   0  0  0  0  0  0  0  0  0  0  0  0
  1  2  1  0
  1 32  1  0
  1 33  1  0
  1 34  1  0
  2  3  2  0
  2  4  1  0
  4  5  1  0
  6  5  1  6
  5 35  1  0
  5 36  1  0
  6 25  1  0
  6 31  1  0
  6  7  1  0
  7  8  1  0
  7 37  1  0
  7 38  1  0
  8  9  1  0
  8 39  1  0
  8 40  1  0
  9 10  1  0
  9 11  1  1
  9 12  1  0
 10 41  1  0
 10 42  1  0
 10 43  1  0
 11 44  1  0
 12 28  1  0
 12 13  1  1
 12 14  1  0
 13 45  1  0
 13 46  1  0
 13 47  1  0
 14 15  1  0
 14 48  1  0
 14 49  1  0
 16 15  1  6
 15 50  1  0
 15 51  1  0
 16 24  1  0
 16 17  1  0
 16 29  1  0
 17 18  1  0
 17 52  1  0
 17 53  1  0
 18 19  1  0
 18 20  1  0
 18 54  1  6
 19 55  1  0
 20 21  1  0
 20 56  1  0
 20 57  1  0
 21 22  1  0
 21 23  1  1
 21 24  1  0
 22 58  1  0
 22 59  1  0
 22 60  1  0
 23 61  1  0
 24 25  1  0
 24 62  1  6
 25 26  1  1
 25 27  1  0
 26 63  1  0
 26 64  1  0
 26 65  1  0
 27 28  1  0
 29 30  2  0
 29 31  1  0
M  END
>  <i_m_ct_stereo_status>  (383) 
1

>  <s_m_source_file>  (383) 
/var/tmp/pbs.5083858.sched01/tmpomdzics0/155fiydj0oo.sdf

>  <i_m_source_file_index>  (383) 
5

>  <i_lp_mmshare_version>  (383) 
48012

>  <i_f3d_flags>  (383) 
0

>  <s_epik_input>  (383) 
W0NIMl0xW0NAQEhdKFtPSF0pW0NIMl1bQ0BAXShbQ0gzXSkoW09IXSlbQ0BASF0oW0NAXTEyMylbQ0BAXTQoW0NIM10pW0NAXShPQzM9TykoW0NIMl1PQyg9TylbQ0gzXSlbQ0gyXVtDSDJdW0NAQF0oW0NIM10pKFtPSF0pW0NAXShbQ0gzXSkoT080KVtDSDJdW0NIMl0y

>  <s_epik_cmdline>  (383) 
J2VwaWtfcHl0aG9uJywgJy1waHQnLCAnMi4wJywgJy1waCcsICc3LjAnLCAnLXRuJywgJzgnLCAnLW1hJywgJzIwMCcsICctaW1hZScsICc8aW5maWxlLm1hZT4nLCAnLW9tYWUnLCAnPG91dGZpbGUubWFlPic=

>  <r_lp_tautomer_probability>  (383) 
1

>  <r_epik_Ionization_Penalty>  (383) 
3.73407e-07

>  <r_epik_Ionization_Penalty_Charging>  (383) 
0

>  <r_epik_Ionization_Penalty_Neutral>  (383) 
3.73407e-07

>  <r_epik_State_Penalty>  (383) 
-0

>  <r_epik_Charging_Adjusted_Penalty>  (383) 
0

>  <i_epik_Tot_Q>  (383) 
0

>  <i_epik_Tot_abs_Q>  (383) 
0

>  <s_epik_Chemistry_Notes>  (383) 
This compound has an ester and may undergo hydrolysis at high or low pH.

>  <s_lp_Force_Field>  (383) 
OPLS3e

>  <r_lp_Energy>  (383) 
191.447

>  <b_lp_Chiralities_Consistent>  (383) 
1

>  <s_lp_Variant>  (383) 
109:0-1

>  <s_i_glide_gridfile>  (383) 
pfpi4k_grid

>  <i_i_glide_lignum>  (383) 
5

>  <i_i_glide_rotatable_bonds>  (383) 
6

>  <r_i_docking_score>  (383) 
-3.11995

>  <r_i_glide_ligand_efficiency>  (383) 
-0.100644

>  <r_i_glide_ligand_efficiency_sa>  (383) 
-0.31616

>  <r_i_glide_ligand_efficiency_ln>  (383) 
-0.703644

>  <r_i_glide_gscore>  (383) 
-3.11995

>  <r_i_glide_lipo>  (383) 
-0.25202

>  <r_i_glide_hbond>  (383) 
-0.16

>  <r_i_glide_metal>  (383) 
-0

>  <r_i_glide_rewards>  (383) 
-0.506588

>  <r_i_glide_evdw>  (383) 
-26.4099

>  <r_i_glide_ecoul>  (383) 
-7.18329

>  <r_i_glide_erotb>  (383) 
0.204119

>  <r_i_glide_esite>  (383) 
-0.00747134

>  <r_i_glide_emodel>  (383) 
-39.6991

>  <r_i_glide_energy>  (383) 
-33.5932

>  <r_i_glide_einternal>  (383) 
0.911482

>  <r_i_glide_intrahb_reward>  (383) 
-0

>  <i_i_glide_confnum>  (383) 
1

>  <i_i_glide_posenum>  (383) 
15

>  <r_i_glide_eff_state_penalty>  (383) 
0

>  <ligand_id>  (383) 
109

>  <original_smiles>  (383) 
CC(=O)OCC12CCC(C)(O)C3(C)CCC4(CC(O)CC(C)(O)C4C1(C)OO3)C(=O)O2

>  <smiles>  (383) 
[H]OC1([H])C([H])([H])C(O[H])(C([H])([H])[H])C2([H])C3(C([H])([H])[H])OOC4(C([H])([H])[H])C([H])([H])C([H])([H])C2(C(=O)OC3(C([H])([H])OC(=O)C([H])([H])[H])C([H])([H])C([H])([H])C4(O[H])C([H])([H])[H])C1([H])[H]

$$$$
109:0:1
     RDKit          3D

 65 68  0  0  1  0  0  0  0  0999 V2000
    2.1137    0.8494    3.1833 C   0  0  0  0  0  0  0  0  0  0  0  0
    2.2071   -0.6058    2.7151 C   0  0  0  0  0  0  0  0  0  0  0  0
    1.3071   -1.4120    2.9476 O   0  0  0  0  0  0  0  0  0  0  0  0
    3.3369   -0.8630    2.0432 O   0  0  0  0  0  0  0  0  0  0  0  0
    3.5207   -2.0750    1.2931 C   0  0  0  0  0  0  0  0  0  0  0  0
    4.6474   -3.0939    1.7953 C   0  0  2  0  0  0  0  0  0  0  0  0
    5.8149   -2.0833    1.7501 C   0  0  0  0  0  0  0  0  0  0  0  0
    6.4014   -1.8876    0.3038 C   0  0  0  0  0  0  0  0  0  0  0  0
    5.6557   -2.2030   -1.0944 C   0  0  1  0  0  0  0  0  0  0  0  0
    5.0120   -0.9443   -1.7095 C   0  0  0  0  0  0  0  0  0  0  0  0
    6.8186   -2.2693   -1.9056 O   0  0  0  0  0  0  0  0  0  0  0  0
    4.7472   -3.5027   -1.4577 C   0  0  2  0  0  0  0  0  0  0  0  0
    4.7843   -3.7277   -3.0045 C   0  0  0  0  0  0  0  0  0  0  0  0
    3.2137   -3.5441   -1.0388 C   0  0  0  0  0  0  0  0  0  0  0  0
    2.5198   -4.6041   -0.0553 C   0  0  0  0  0  0  0  0  0  0  0  0
    2.8689   -5.2395    1.3895 C   0  0  1  0  0  0  0  0  0  0  0  0
    1.7738   -6.3766    1.5153 C   0  0  0  0  0  0  0  0  0  0  0  0
    2.0891   -7.5844    2.4036 C   0  0  1  0  0  0  0  0  0  0  0  0
    1.0635   -8.5515    2.2590 O   0  0  0  0  0  0  0  0  0  0  0  0
    3.4275   -8.1559    1.9610 C   0  0  0  0  0  0  0  0  0  0  0  0
    4.5472   -7.1197    2.1875 C   0  0  1  0  0  0  0  0  0  0  0  0
    4.7632   -6.9767    3.7209 C   0  0  0  0  0  0  0  0  0  0  0  0
    5.6646   -7.8215    1.6701 O   0  0  0  0  0  0  0  0  0  0  0  0
    4.2912   -5.8047    1.3124 C   0  0  2  0  0  0  0  0  0  0  0  0
    5.2776   -4.5563    1.3528 C   0  0  2  0  0  0  0  0  0  0  0  0
    6.4792   -4.8647    2.2826 C   0  0  0  0  0  0  0  0  0  0  0  0
    6.0710   -4.5244    0.1833 O   0  0  0  0  0  0  0  0  0  0  0  0
    5.2504   -4.7252   -1.0152 O   0  0  0  0  0  0  0  0  0  0  0  0
    2.8330   -4.3702    2.7120 C   0  0  0  0  0  0  0  0  0  0  0  0
    1.9514   -4.5237    3.5621 O   0  0  0  0  0  0  0  0  0  0  0  0
    3.8963   -3.4937    2.9278 O   0  0  0  0  0  0  0  0  0  0  0  0
    2.9429    1.1184    3.8377 H   0  0  0  0  0  0  0  0  0  0  0  0
    1.1919    1.0025    3.7422 H   0  0  0  0  0  0  0  0  0  0  0  0
    2.0986    1.5524    2.3470 H   0  0  0  0  0  0  0  0  0  0  0  0
    2.5368   -2.4957    1.1171 H   0  0  0  0  0  0  0  0  0  0  0  0
    3.8383   -1.6360    0.3717 H   0  0  0  0  0  0  0  0  0  0  0  0
    5.5936   -1.1032    2.1676 H   0  0  0  0  0  0  0  0  0  0  0  0
    6.6124   -2.3556    2.4380 H   0  0  0  0  0  0  0  0  0  0  0  0
    6.7366   -0.8496    0.2721 H   0  0  0  0  0  0  0  0  0  0  0  0
    7.3480   -2.4354    0.3232 H   0  0  0  0  0  0  0  0  0  0  0  0
    4.0184   -0.6874   -1.3466 H   0  0  0  0  0  0  0  0  0  0  0  0
    4.9439   -0.9847   -2.7976 H   0  0  0  0  0  0  0  0  0  0  0  0
    5.6522   -0.1043   -1.4969 H   0  0  0  0  0  0  0  0  0  0  0  0
    6.5908   -2.6962   -2.7196 H   0  0  0  0  0  0  0  0  0  0  0  0
    5.7875   -3.8494   -3.4083 H   0  0  0  0  0  0  0  0  0  0  0  0
    4.2871   -2.9255   -3.5448 H   0  0  0  0  0  0  0  0  0  0  0  0
    4.2761   -4.6448   -3.2914 H   0  0  0  0  0  0  0  0  0  0  0  0
    2.7632   -2.5570   -0.9888 H   0  0  0  0  0  0  0  0  0  0  0  0
    2.6938   -3.8259   -1.9568 H   0  0  0  0  0  0  0  0  0  0  0  0
    1.4926   -4.2676    0.0069 H   0  0  0  0  0  0  0  0  0  0  0  0
    2.4366   -5.4586   -0.7233 H   0  0  0  0  0  0  0  0  0  0  0  0
    0.8365   -5.9574    1.8825 H   0  0  0  0  0  0  0  0  0  0  0  0
    1.5184   -6.7958    0.5406 H   0  0  0  0  0  0  0  0  0  0  0  0
    2.1039   -7.3100    3.4580 H   0  0  0  0  0  0  0  0  0  0  0  0
    1.0638   -8.9019    1.3798 H   0  0  0  0  0  0  0  0  0  0  0  0
    3.6407   -9.0916    2.4832 H   0  0  0  0  0  0  0  0  0  0  0  0
    3.3763   -8.4260    0.9052 H   0  0  0  0  0  0  0  0  0  0  0  0
    4.0580   -6.2911    4.1848 H   0  0  0  0  0  0  0  0  0  0  0  0
    5.7656   -6.6645    3.9985 H   0  0  0  0  0  0  0  0  0  0  0  0
    4.6273   -7.9375    4.2205 H   0  0  0  0  0  0  0  0  0  0  0  0
    6.4447   -7.3314    1.8673 H   0  0  0  0  0  0  0  0  0  0  0  0
    4.3332   -6.2471    0.3215 H   0  0  0  0  0  0  0  0  0  0  0  0
    7.3455   -4.2492    2.0553 H   0  0  0  0  0  0  0  0  0  0  0  0
    6.2206   -4.6872    3.3257 H   0  0  0  0  0  0  0  0  0  0  0  0
    6.9036   -5.8551    2.1741 H   0  0  0  0  0  0  0  0  0  0  0  0
  1  2  1  0
  1 32  1  0
  1 33  1  0
  1 34  1  0
  2  3  2  0
  2  4  1  0
  4  5  1  0
  6  5  1  6
  5 35  1  0
  5 36  1  0
  6 25  1  0
  6 31  1  0
  6  7  1  0
  7  8  1  0
  7 37  1  0
  7 38  1  0
  8  9  1  0
  8 39  1  0
  8 40  1  0
  9 10  1  0
  9 11  1  6
  9 12  1  0
 10 41  1  0
 10 42  1  0
 10 43  1  0
 11 44  1  0
 12 28  1  0
 12 13  1  6
 12 14  1  0
 13 45  1  0
 13 46  1  0
 13 47  1  0
 14 15  1  0
 14 48  1  0
 14 49  1  0
 16 15  1  6
 15 50  1  0
 15 51  1  0
 16 24  1  0
 16 17  1  0
 16 29  1  0
 17 18  1  0
 17 52  1  0
 17 53  1  0
 18 19  1  0
 18 20  1  0
 18 54  1  1
 19 55  1  0
 20 21  1  0
 20 56  1  0
 20 57  1  0
 21 22  1  0
 21 23  1  6
 21 24  1  0
 22 58  1  0
 22 59  1  0
 22 60  1  0
 23 61  1  0
 24 25  1  0
 24 62  1  6
 25 26  1  1
 25 27  1  0
 26 63  1  0
 26 64  1  0
 26 65  1  0
 27 28  1  0
 29 30  2  0
 29 31  1  0
M  END
>  <i_m_ct_stereo_status>  (384) 
1

>  <s_m_source_file>  (384) 
/var/tmp/pbs.5083858.sched01/tmpomdzics0/155fiydj0oo.sdf

>  <i_m_source_file_index>  (384) 
5

>  <i_lp_mmshare_version>  (384) 
48012

>  <i_f3d_flags>  (384) 
0

>  <s_epik_input>  (384) 
W0NIMl0xW0NAQEhdKFtPSF0pW0NIMl1bQ0BAXShbQ0gzXSkoW09IXSlbQ0BASF0oW0NAXTEyMylbQ0BAXTQoW0NIM10pW0NAXShPQzM9TykoW0NIMl1PQyg9TylbQ0gzXSlbQ0gyXVtDSDJdW0NAQF0oW0NIM10pKFtPSF0pW0NAXShbQ0gzXSkoT080KVtDSDJdW0NIMl0y

>  <s_epik_cmdline>  (384) 
J2VwaWtfcHl0aG9uJywgJy1waHQnLCAnMi4wJywgJy1waCcsICc3LjAnLCAnLXRuJywgJzgnLCAnLW1hJywgJzIwMCcsICctaW1hZScsICc8aW5maWxlLm1hZT4nLCAnLW9tYWUnLCAnPG91dGZpbGUubWFlPic=

>  <r_lp_tautomer_probability>  (384) 
1

>  <r_epik_Ionization_Penalty>  (384) 
3.73407e-07

>  <r_epik_Ionization_Penalty_Charging>  (384) 
0

>  <r_epik_Ionization_Penalty_Neutral>  (384) 
3.73407e-07

>  <r_epik_State_Penalty>  (384) 
-0

>  <r_epik_Charging_Adjusted_Penalty>  (384) 
0

>  <i_epik_Tot_Q>  (384) 
0

>  <i_epik_Tot_abs_Q>  (384) 
0

>  <s_epik_Chemistry_Notes>  (384) 
This compound has an ester and may undergo hydrolysis at high or low pH.

>  <s_lp_Force_Field>  (384) 
OPLS3e

>  <r_lp_Energy>  (384) 
191.447

>  <b_lp_Chiralities_Consistent>  (384) 
1

>  <s_lp_Variant>  (384) 
109:0-1

>  <s_i_glide_gridfile>  (384) 
pfpi4k_grid

>  <i_i_glide_lignum>  (384) 
5

>  <i_i_glide_rotatable_bonds>  (384) 
6

>  <r_i_docking_score>  (384) 
-2.62202

>  <r_i_glide_ligand_efficiency>  (384) 
-0.0845812

>  <r_i_glide_ligand_efficiency_sa>  (384) 
-0.265702

>  <r_i_glide_ligand_efficiency_ln>  (384) 
-0.591345

>  <r_i_glide_gscore>  (384) 
-2.62202

>  <r_i_glide_lipo>  (384) 
-0.397222

>  <r_i_glide_hbond>  (384) 
-0.194938

>  <r_i_glide_metal>  (384) 
-0

>  <r_i_glide_rewards>  (384) 
-0.392046

>  <r_i_glide_evdw>  (384) 
-25.837

>  <r_i_glide_ecoul>  (384) 
-3.54774

>  <r_i_glide_erotb>  (384) 
0.204119

>  <r_i_glide_esite>  (384) 
-0.0179204

>  <r_i_glide_emodel>  (384) 
-34.4229

>  <r_i_glide_energy>  (384) 
-29.3847

>  <r_i_glide_einternal>  (384) 
0.981306

>  <r_i_glide_intrahb_reward>  (384) 
-0

>  <i_i_glide_confnum>  (384) 
4

>  <i_i_glide_posenum>  (384) 
14

>  <r_i_glide_eff_state_penalty>  (384) 
0

>  <ligand_id>  (384) 
109

>  <original_smiles>  (384) 
CC(=O)OCC12CCC(C)(O)C3(C)CCC4(CC(O)CC(C)(O)C4C1(C)OO3)C(=O)O2

>  <smiles>  (384) 
[H]OC1([H])C([H])([H])C(O[H])(C([H])([H])[H])C2([H])C3(C([H])([H])[H])OOC4(C([H])([H])[H])C([H])([H])C([H])([H])C2(C(=O)OC3(C([H])([H])OC(=O)C([H])([H])[H])C([H])([H])C([H])([H])C4(O[H])C([H])([H])[H])C1([H])[H]

$$$$
109:0:2
     RDKit          3D

 65 68  0  0  1  0  0  0  0  0999 V2000
    6.4327  -10.8327    2.2721 C   0  0  0  0  0  0  0  0  0  0  0  0
    5.2605   -9.8939    2.5972 C   0  0  0  0  0  0  0  0  0  0  0  0
    4.3998  -10.2239    3.3807 O   0  0  0  0  0  0  0  0  0  0  0  0
    5.3258   -8.6655    1.9902 O   0  0  0  0  0  0  0  0  0  0  0  0
    4.2003   -7.7434    2.0494 C   0  0  0  0  0  0  0  0  0  0  0  0
    4.2395   -6.5735    3.1432 C   0  0  2  0  0  0  0  0  0  0  0  0
    4.3626   -7.4744    4.3822 C   0  0  0  0  0  0  0  0  0  0  0  0
    2.9651   -8.1362    4.7506 C   0  0  0  0  0  0  0  0  0  0  0  0
    1.6522   -8.3082    3.7861 C   0  0  1  0  0  0  0  0  0  0  0  0
    1.5446   -9.7244    3.1268 C   0  0  0  0  0  0  0  0  0  0  0  0
    0.6727   -8.4777    4.7927 O   0  0  0  0  0  0  0  0  0  0  0  0
    1.0215   -7.1764    2.7776 C   0  0  2  0  0  0  0  0  0  0  0  0
   -0.5060   -7.4334    2.5722 C   0  0  0  0  0  0  0  0  0  0  0  0
    1.5884   -6.9935    1.2980 C   0  0  0  0  0  0  0  0  0  0  0  0
    2.2850   -5.6898    0.6850 C   0  0  0  0  0  0  0  0  0  0  0  0
    3.3979   -4.6363    1.1994 C   0  0  1  0  0  0  0  0  0  0  0  0
    3.3085   -3.4983    0.0941 C   0  0  0  0  0  0  0  0  0  0  0  0
    3.7687   -2.0931    0.4901 C   0  0  1  0  0  0  0  0  0  0  0  0
    3.5663   -1.1923   -0.5626 O   0  0  0  0  0  0  0  0  0  0  0  0
    2.9744   -1.6893    1.7270 C   0  0  0  0  0  0  0  0  0  0  0  0
    3.3585   -2.6067    2.9063 C   0  0  1  0  0  0  0  0  0  0  0  0
    4.8206   -2.2764    3.3105 C   0  0  0  0  0  0  0  0  0  0  0  0
    2.5390   -2.1158    3.9513 O   0  0  0  0  0  0  0  0  0  0  0  0
    2.9767   -4.1354    2.5920 C   0  0  2  0  0  0  0  0  0  0  0  0
    3.2789   -5.3185    3.6315 C   0  0  2  0  0  0  0  0  0  0  0  0
    3.9128   -4.7190    4.9192 C   0  0  0  0  0  0  0  0  0  0  0  0
    2.0621   -5.6877    4.2682 O   0  0  0  0  0  0  0  0  0  0  0  0
    0.9693   -5.8744    3.2864 O   0  0  0  0  0  0  0  0  0  0  0  0
    4.9111   -5.0628    1.3606 C   0  0  0  0  0  0  0  0  0  0  0  0
    5.7835   -4.6546    0.5900 O   0  0  0  0  0  0  0  0  0  0  0  0
    5.2505   -5.8376    2.4645 O   0  0  0  0  0  0  0  0  0  0  0  0
    6.2937  -11.3725    1.3361 H   0  0  0  0  0  0  0  0  0  0  0  0
    6.4776  -11.5895    3.0437 H   0  0  0  0  0  0  0  0  0  0  0  0
    7.3895  -10.3250    2.2881 H   0  0  0  0  0  0  0  0  0  0  0  0
    4.1046   -7.3905    1.0266 H   0  0  0  0  0  0  0  0  0  0  0  0
    3.3630   -8.3868    2.2006 H   0  0  0  0  0  0  0  0  0  0  0  0
    5.1414   -8.2102    4.2711 H   0  0  0  0  0  0  0  0  0  0  0  0
    4.7488   -6.9621    5.2483 H   0  0  0  0  0  0  0  0  0  0  0  0
    3.2123   -9.1361    5.1170 H   0  0  0  0  0  0  0  0  0  0  0  0
    2.6270   -7.6041    5.6443 H   0  0  0  0  0  0  0  0  0  0  0  0
    2.0689   -9.8466    2.1772 H   0  0  0  0  0  0  0  0  0  0  0  0
    0.5152  -10.0240    2.9123 H   0  0  0  0  0  0  0  0  0  0  0  0
    1.9298  -10.4967    3.7912 H   0  0  0  0  0  0  0  0  0  0  0  0
    0.7028   -7.7188    5.3563 H   0  0  0  0  0  0  0  0  0  0  0  0
   -1.0724   -7.4285    3.5029 H   0  0  0  0  0  0  0  0  0  0  0  0
   -0.6931   -8.3867    2.0752 H   0  0  0  0  0  0  0  0  0  0  0  0
   -0.9637   -6.6602    1.9505 H   0  0  0  0  0  0  0  0  0  0  0  0
    2.0033   -7.9080    0.8919 H   0  0  0  0  0  0  0  0  0  0  0  0
    0.7125   -7.0217    0.6470 H   0  0  0  0  0  0  0  0  0  0  0  0
    2.6483   -5.9932   -0.2950 H   0  0  0  0  0  0  0  0  0  0  0  0
    1.4050   -5.0817    0.4794 H   0  0  0  0  0  0  0  0  0  0  0  0
    3.9007   -3.7884   -0.7680 H   0  0  0  0  0  0  0  0  0  0  0  0
    2.2874   -3.4026   -0.2934 H   0  0  0  0  0  0  0  0  0  0  0  0
    4.8408   -2.0397    0.6593 H   0  0  0  0  0  0  0  0  0  0  0  0
    2.6156   -1.0890   -0.6798 H   0  0  0  0  0  0  0  0  0  0  0  0
    3.1367   -0.6409    1.9820 H   0  0  0  0  0  0  0  0  0  0  0  0
    1.9038   -1.7657    1.5265 H   0  0  0  0  0  0  0  0  0  0  0  0
    5.5603   -2.7799    2.6912 H   0  0  0  0  0  0  0  0  0  0  0  0
    5.0453   -2.4953    4.3488 H   0  0  0  0  0  0  0  0  0  0  0  0
    5.0084   -1.2077    3.2138 H   0  0  0  0  0  0  0  0  0  0  0  0
    1.6313   -2.1630    3.6815 H   0  0  0  0  0  0  0  0  0  0  0  0
    1.8955   -4.0304    2.4859 H   0  0  0  0  0  0  0  0  0  0  0  0
    3.7491   -5.3433    5.7883 H   0  0  0  0  0  0  0  0  0  0  0  0
    4.9861   -4.5769    4.8058 H   0  0  0  0  0  0  0  0  0  0  0  0
    3.4484   -3.8133    5.2927 H   0  0  0  0  0  0  0  0  0  0  0  0
  1  2  1  0
  1 32  1  0
  1 33  1  0
  1 34  1  0
  2  3  2  0
  2  4  1  0
  4  5  1  0
  6  5  1  6
  5 35  1  0
  5 36  1  0
  6 25  1  0
  6 31  1  0
  6  7  1  0
  7  8  1  0
  7 37  1  0
  7 38  1  0
  8  9  1  0
  8 39  1  0
  8 40  1  0
  9 10  1  0
  9 11  1  1
  9 12  1  0
 10 41  1  0
 10 42  1  0
 10 43  1  0
 11 44  1  0
 12 28  1  0
 12 13  1  6
 12 14  1  0
 13 45  1  0
 13 46  1  0
 13 47  1  0
 14 15  1  0
 14 48  1  0
 14 49  1  0
 16 15  1  6
 15 50  1  0
 15 51  1  0
 16 24  1  0
 16 17  1  0
 16 29  1  0
 17 18  1  0
 17 52  1  0
 17 53  1  0
 18 19  1  0
 18 20  1  0
 18 54  1  1
 19 55  1  0
 20 21  1  0
 20 56  1  0
 20 57  1  0
 21 22  1  0
 21 23  1  1
 21 24  1  0
 22 58  1  0
 22 59  1  0
 22 60  1  0
 23 61  1  0
 24 25  1  0
 24 62  1  6
 25 26  1  1
 25 27  1  0
 26 63  1  0
 26 64  1  0
 26 65  1  0
 27 28  1  0
 29 30  2  0
 29 31  1  0
M  END
>  <i_m_ct_stereo_status>  (385) 
1

>  <s_m_source_file>  (385) 
/var/tmp/pbs.5083858.sched01/tmpomdzics0/155fiydj0oo.sdf

>  <i_m_source_file_index>  (385) 
5

>  <i_lp_mmshare_version>  (385) 
48012

>  <i_f3d_flags>  (385) 
0

>  <s_epik_input>  (385) 
W0NIMl0xW0NAQEhdKFtPSF0pW0NIMl1bQ0BAXShbQ0gzXSkoW09IXSlbQ0BASF0oW0NAXTEyMylbQ0BAXTQoW0NIM10pW0NAXShPQzM9TykoW0NIMl1PQyg9TylbQ0gzXSlbQ0gyXVtDSDJdW0NAQF0oW0NIM10pKFtPSF0pW0NAXShbQ0gzXSkoT080KVtDSDJdW0NIMl0y

>  <s_epik_cmdline>  (385) 
J2VwaWtfcHl0aG9uJywgJy1waHQnLCAnMi4wJywgJy1waCcsICc3LjAnLCAnLXRuJywgJzgnLCAnLW1hJywgJzIwMCcsICctaW1hZScsICc8aW5maWxlLm1hZT4nLCAnLW9tYWUnLCAnPG91dGZpbGUubWFlPic=

>  <r_lp_tautomer_probability>  (385) 
1

>  <r_epik_Ionization_Penalty>  (385) 
3.73407e-07

>  <r_epik_Ionization_Penalty_Charging>  (385) 
0

>  <r_epik_Ionization_Penalty_Neutral>  (385) 
3.73407e-07

>  <r_epik_State_Penalty>  (385) 
-0

>  <r_epik_Charging_Adjusted_Penalty>  (385) 
0

>  <i_epik_Tot_Q>  (385) 
0

>  <i_epik_Tot_abs_Q>  (385) 
0

>  <s_epik_Chemistry_Notes>  (385) 
This compound has an ester and may undergo hydrolysis at high or low pH.

>  <s_lp_Force_Field>  (385) 
OPLS3e

>  <r_lp_Energy>  (385) 
191.447

>  <b_lp_Chiralities_Consistent>  (385) 
1

>  <s_lp_Variant>  (385) 
109:0-1

>  <s_i_glide_gridfile>  (385) 
pfpi4k_grid

>  <i_i_glide_lignum>  (385) 
5

>  <i_i_glide_rotatable_bonds>  (385) 
6

>  <r_i_docking_score>  (385) 
-2.34489

>  <r_i_glide_ligand_efficiency>  (385) 
-0.0756416

>  <r_i_glide_ligand_efficiency_sa>  (385) 
-0.237619

>  <r_i_glide_ligand_efficiency_ln>  (385) 
-0.528844

>  <r_i_glide_gscore>  (385) 
-2.34489

>  <r_i_glide_lipo>  (385) 
-0.0907138

>  <r_i_glide_hbond>  (385) 
-0.16

>  <r_i_glide_metal>  (385) 
-0

>  <r_i_glide_rewards>  (385) 
-0.446331

>  <r_i_glide_evdw>  (385) 
-28.1525

>  <r_i_glide_ecoul>  (385) 
-2.71904

>  <r_i_glide_erotb>  (385) 
0.204119

>  <r_i_glide_esite>  (385) 
-0.0364813

>  <r_i_glide_emodel>  (385) 
-32.8571

>  <r_i_glide_energy>  (385) 
-30.8716

>  <r_i_glide_einternal>  (385) 
0.950735

>  <r_i_glide_intrahb_reward>  (385) 
-0

>  <i_i_glide_confnum>  (385) 
3

>  <i_i_glide_posenum>  (385) 
17

>  <r_i_glide_eff_state_penalty>  (385) 
0

>  <ligand_id>  (385) 
109

>  <original_smiles>  (385) 
CC(=O)OCC12CCC(C)(O)C3(C)CCC4(CC(O)CC(C)(O)C4C1(C)OO3)C(=O)O2

>  <smiles>  (385) 
[H]OC1([H])C([H])([H])C(O[H])(C([H])([H])[H])C2([H])C3(C([H])([H])[H])OOC4(C([H])([H])[H])C([H])([H])C([H])([H])C2(C(=O)OC3(C([H])([H])OC(=O)C([H])([H])[H])C([H])([H])C([H])([H])C4(O[H])C([H])([H])[H])C1([H])[H]

$$$$
110:0:0
     RDKit          3D

 36 40  0  0  1  0  0  0  0  0999 V2000
    7.3537   -5.1009    1.5459 C   0  0  0  0  0  0  0  0  0  0  0  0
    7.0636   -3.9247    0.6853 N   0  0  1  0  0  0  0  0  0  0  0  0
    8.1350   -3.6278   -0.3124 C   0  0  0  0  0  0  0  0  0  0  0  0
    7.4451   -3.1007   -1.5847 C   0  0  0  0  0  0  0  0  0  0  0  0
    6.0045   -2.8952   -1.1292 C   0  0  2  0  0  0  0  0  0  0  0  0
    4.8806   -2.7584   -2.1428 C   0  0  0  0  0  0  0  0  0  0  0  0
    3.6618   -3.4571   -2.0280 C   0  0  0  0  0  0  0  0  0  0  0  0
    2.6236   -3.0673   -2.9102 C   0  0  0  0  0  0  0  0  0  0  0  0
    2.7758   -1.9002   -3.6934 C   0  0  0  0  0  0  0  0  0  0  0  0
    3.8312   -1.0186   -3.3943 C   0  0  0  0  0  0  0  0  0  0  0  0
    3.8132    0.2544   -3.8714 O   0  0  0  0  0  0  0  0  0  0  0  0
    4.8198   -1.4227   -2.4739 C   0  0  0  0  0  0  0  0  0  0  0  0
    5.4217   -0.6563   -1.5077 O   0  0  0  0  0  0  0  0  0  0  0  0
    5.7939   -1.5565   -0.4286 C   0  0  1  0  0  0  0  0  0  0  0  0
    4.6652   -1.9901    0.5414 C   0  0  0  0  0  0  0  0  0  0  0  0
    4.0262   -1.2248    1.2560 O   0  0  0  0  0  0  0  0  0  0  0  0
    4.4837   -3.5384    0.4723 C   0  0  1  0  0  0  0  0  0  0  0  0
    4.1989   -4.1134    1.7369 O   0  0  0  0  0  0  0  0  0  0  0  0
    3.4331   -4.0031   -0.6050 C   0  0  0  0  0  0  0  0  0  0  0  0
    5.8076   -4.0040   -0.1160 C   0  0  2  0  0  0  0  0  0  0  0  0
    7.4396   -6.0154    0.9570 H   0  0  0  0  0  0  0  0  0  0  0  0
    6.5720   -5.2359    2.2920 H   0  0  0  0  0  0  0  0  0  0  0  0
    8.2962   -4.9575    2.0774 H   0  0  0  0  0  0  0  0  0  0  0  0
    8.8466   -2.9163    0.0997 H   0  0  0  0  0  0  0  0  0  0  0  0
    8.7063   -4.5247   -0.5448 H   0  0  0  0  0  0  0  0  0  0  0  0
    7.9251   -2.2105   -1.9800 H   0  0  0  0  0  0  0  0  0  0  0  0
    7.5001   -3.8465   -2.3620 H   0  0  0  0  0  0  0  0  0  0  0  0
    1.6637   -3.5557   -2.8724 H   0  0  0  0  0  0  0  0  0  0  0  0
    1.9645   -1.5900   -4.3212 H   0  0  0  0  0  0  0  0  0  0  0  0
    2.9837    0.6936   -3.7512 H   0  0  0  0  0  0  0  0  0  0  0  0
    6.6529   -1.1894    0.1351 H   0  0  0  0  0  0  0  0  0  0  0  0
    4.0104   -5.0352    1.6315 H   0  0  0  0  0  0  0  0  0  0  0  0
    2.4365   -3.7135   -0.2922 H   0  0  0  0  0  0  0  0  0  0  0  0
    3.4289   -5.0892   -0.6687 H   0  0  0  0  0  0  0  0  0  0  0  0
    5.7360   -4.9909   -0.5807 H   0  0  0  0  0  0  0  0  0  0  0  0
    6.9969   -3.1187    1.2975 H   0  0  0  0  0  0  0  0  0  0  0  0
  1  2  1  0
  1 21  1  0
  1 22  1  0
  1 23  1  0
  2 20  1  0
  2  3  1  0
  2 36  1  1
  3  4  1  0
  3 24  1  0
  3 25  1  0
  5  4  1  6
  4 26  1  0
  4 27  1  0
  5 14  1  0
  5 20  1  0
  5  6  1  0
  6 12  2  0
  6  7  1  0
  7 19  1  0
  7  8  2  0
  8  9  1  0
  8 28  1  0
  9 10  2  0
  9 29  1  0
 10 11  1  0
 10 12  1  0
 11 30  1  0
 12 13  1  0
 13 14  1  0
 14 15  1  0
 14 31  1  1
 15 16  2  0
 15 17  1  0
 17 18  1  1
 17 19  1  0
 17 20  1  0
 18 32  1  0
 19 33  1  0
 19 34  1  0
 20 35  1  6
M  CHG  1   2   1
M  END
>  <i_m_ct_stereo_status>  (386) 
1

>  <s_m_source_file>  (386) 
/var/tmp/pbs.5083858.sched01/tmpfwoas7s2/160e3gkngik.sdf

>  <i_m_source_file_index>  (386) 
1

>  <i_lp_mmshare_version>  (386) 
48012

>  <i_f3d_flags>  (386) 
0

>  <s_epik_input>  (386) 
W0NIMl0xW0NIMl1OKFtDSDNdKVtDQEhdMltDQF0oW09IXSkoW0NIMl0zKUMoPU8pW0NAQEhdNE9jNWMoW09IXSlbY0hdW2NIXWMzYzVbQ0BdMTI0

>  <s_epik_cmdline>  (386) 
J2VwaWtfcHl0aG9uJywgJy1waHQnLCAnMi4wJywgJy1waCcsICc3LjAnLCAnLXRuJywgJzgnLCAnLW1hJywgJzIwMCcsICctaW1hZScsICc8aW5maWxlLm1hZT4nLCAnLW9tYWUnLCAnPG91dGZpbGUubWFlPic=

>  <r_lp_tautomer_probability>  (386) 
1

>  <r_epik_Ionization_Penalty>  (386) 
0.246129

>  <r_epik_Ionization_Penalty_Charging>  (386) 
0.227527

>  <r_epik_Ionization_Penalty_Neutral>  (386) 
0.0186024

>  <r_epik_State_Penalty>  (386) 
0.294873

>  <r_epik_Charging_Adjusted_Penalty>  (386) 
0.5224

>  <i_epik_Tot_Q>  (386) 
1

>  <i_epik_Tot_abs_Q>  (386) 
1

>  <s_lp_Force_Field>  (386) 
OPLS3e

>  <r_lp_Energy>  (386) 
96.3363

>  <b_lp_Chiralities_Consistent>  (386) 
1

>  <s_lp_Variant>  (386) 
110:0-1

>  <s_i_glide_gridfile>  (386) 
pfpi4k_grid

>  <i_i_glide_lignum>  (386) 
1

>  <i_i_glide_rotatable_bonds>  (386) 
2

>  <r_i_docking_score>  (386) 
-4.17975

>  <r_i_glide_ligand_efficiency>  (386) 
-0.208988

>  <r_i_glide_ligand_efficiency_sa>  (386) 
-0.56728

>  <r_i_glide_ligand_efficiency_ln>  (386) 
-1.04605

>  <r_i_glide_gscore>  (386) 
-4.17975

>  <r_i_glide_lipo>  (386) 
-0.89287

>  <r_i_glide_hbond>  (386) 
-0.00806865

>  <r_i_glide_metal>  (386) 
-0

>  <r_i_glide_rewards>  (386) 
-1.54375

>  <r_i_glide_evdw>  (386) 
-23.1432

>  <r_i_glide_ecoul>  (386) 
-3.85271

>  <r_i_glide_erotb>  (386) 
0

>  <r_i_glide_esite>  (386) 
0

>  <r_i_glide_emodel>  (386) 
-32.0047

>  <r_i_glide_energy>  (386) 
-26.9959

>  <r_i_glide_einternal>  (386) 
1.75986

>  <r_i_glide_intrahb_reward>  (386) 
-0

>  <i_i_glide_confnum>  (386) 
1

>  <i_i_glide_posenum>  (386) 
32

>  <r_i_glide_eff_state_penalty>  (386) 
0

>  <ligand_id>  (386) 
110

>  <original_smiles>  (386) 
CN1CCC23c4c5ccc(O)c4OC2C(=O)C(O)(C5)C13

>  <smiles>  (386) 
[H]Oc1c([H])c([H])c2c3c1OC1([H])C(=O)C(O[H])(C2([H])[H])C2([H])C31C([H])([H])C([H])([H])[N+]2([H])C([H])([H])[H]

$$$$
110:0:1
     RDKit          3D

 36 40  0  0  1  0  0  0  0  0999 V2000
    7.3934   -5.1462    1.5202 C   0  0  0  0  0  0  0  0  0  0  0  0
    7.0982   -3.9604    0.6768 N   0  0  1  0  0  0  0  0  0  0  0  0
    8.1626   -3.6517   -0.3218 C   0  0  0  0  0  0  0  0  0  0  0  0
    7.4636   -3.1054   -1.5830 C   0  0  0  0  0  0  0  0  0  0  0  0
    6.0238   -2.9062   -1.1180 C   0  0  2  0  0  0  0  0  0  0  0  0
    4.8957   -2.7614   -2.1223 C   0  0  0  0  0  0  0  0  0  0  0  0
    3.6776   -3.4567   -2.0163 C   0  0  0  0  0  0  0  0  0  0  0  0
    2.6343   -3.0602   -2.8851 C   0  0  0  0  0  0  0  0  0  0  0  0
    2.7833   -1.8908   -3.6627 C   0  0  0  0  0  0  0  0  0  0  0  0
    3.8329   -1.0081   -3.3501 C   0  0  0  0  0  0  0  0  0  0  0  0
    3.8159    0.2701   -3.8118 O   0  0  0  0  0  0  0  0  0  0  0  0
    4.8270   -1.4191   -2.4399 C   0  0  0  0  0  0  0  0  0  0  0  0
    5.4173   -0.6634   -1.4601 O   0  0  0  0  0  0  0  0  0  0  0  0
    5.8109   -1.5733   -0.3988 C   0  0  1  0  0  0  0  0  0  0  0  0
    4.6926   -2.0268    0.5742 C   0  0  0  0  0  0  0  0  0  0  0  0
    4.0682   -1.2762    1.3184 O   0  0  0  0  0  0  0  0  0  0  0  0
    4.5123   -3.5732    0.4842 C   0  0  1  0  0  0  0  0  0  0  0  0
    4.1792   -4.1854    1.7228 O   0  0  0  0  0  0  0  0  0  0  0  0
    3.4614   -4.0206   -0.5965 C   0  0  0  0  0  0  0  0  0  0  0  0
    5.8374   -4.0301   -0.1145 C   0  0  2  0  0  0  0  0  0  0  0  0
    7.4761   -6.0531    0.9197 H   0  0  0  0  0  0  0  0  0  0  0  0
    6.6152   -5.2978    2.2673 H   0  0  0  0  0  0  0  0  0  0  0  0
    8.3359   -5.0121    2.0550 H   0  0  0  0  0  0  0  0  0  0  0  0
    8.8759   -2.9434    0.0942 H   0  0  0  0  0  0  0  0  0  0  0  0
    8.7333   -4.5444   -0.5707 H   0  0  0  0  0  0  0  0  0  0  0  0
    7.9404   -2.2097   -1.9689 H   0  0  0  0  0  0  0  0  0  0  0  0
    7.5134   -3.8547   -2.3705 H   0  0  0  0  0  0  0  0  0  0  0  0
    1.6753   -3.5552   -2.8464 H   0  0  0  0  0  0  0  0  0  0  0  0
    1.9838   -1.5764   -4.3105 H   0  0  0  0  0  0  0  0  0  0  0  0
    2.9716    0.6978   -3.7305 H   0  0  0  0  0  0  0  0  0  0  0  0
    6.6762   -1.2140    0.1615 H   0  0  0  0  0  0  0  0  0  0  0  0
    4.8248   -3.9838    2.3827 H   0  0  0  0  0  0  0  0  0  0  0  0
    2.4642   -3.7398   -0.2681 H   0  0  0  0  0  0  0  0  0  0  0  0
    3.4556   -5.1072   -0.6652 H   0  0  0  0  0  0  0  0  0  0  0  0
    5.7601   -5.0109   -0.5922 H   0  0  0  0  0  0  0  0  0  0  0  0
    7.0487   -3.1573    1.2927 H   0  0  0  0  0  0  0  0  0  0  0  0
  1  2  1  0
  1 21  1  0
  1 22  1  0
  1 23  1  0
  2 20  1  0
  2  3  1  0
  2 36  1  1
  3  4  1  0
  3 24  1  0
  3 25  1  0
  5  4  1  6
  4 26  1  0
  4 27  1  0
  5 14  1  0
  5 20  1  0
  5  6  1  0
  6 12  2  0
  6  7  1  0
  7 19  1  0
  7  8  2  0
  8  9  1  0
  8 28  1  0
  9 10  2  0
  9 29  1  0
 10 11  1  0
 10 12  1  0
 11 30  1  0
 12 13  1  0
 13 14  1  0
 14 15  1  0
 14 31  1  1
 15 16  2  0
 15 17  1  0
 17 18  1  1
 17 19  1  0
 17 20  1  0
 18 32  1  0
 19 33  1  0
 19 34  1  0
 20 35  1  6
M  CHG  1   2   1
M  END
>  <i_m_ct_stereo_status>  (387) 
1

>  <s_m_source_file>  (387) 
/var/tmp/pbs.5083858.sched01/tmpfwoas7s2/160e3gkngik.sdf

>  <i_m_source_file_index>  (387) 
1

>  <i_lp_mmshare_version>  (387) 
48012

>  <i_f3d_flags>  (387) 
0

>  <s_epik_input>  (387) 
W0NIMl0xW0NIMl1OKFtDSDNdKVtDQEhdMltDQF0oW09IXSkoW0NIMl0zKUMoPU8pW0NAQEhdNE9jNWMoW09IXSlbY0hdW2NIXWMzYzVbQ0BdMTI0

>  <s_epik_cmdline>  (387) 
J2VwaWtfcHl0aG9uJywgJy1waHQnLCAnMi4wJywgJy1waCcsICc3LjAnLCAnLXRuJywgJzgnLCAnLW1hJywgJzIwMCcsICctaW1hZScsICc8aW5maWxlLm1hZT4nLCAnLW9tYWUnLCAnPG91dGZpbGUubWFlPic=

>  <r_lp_tautomer_probability>  (387) 
1

>  <r_epik_Ionization_Penalty>  (387) 
0.246129

>  <r_epik_Ionization_Penalty_Charging>  (387) 
0.227527

>  <r_epik_Ionization_Penalty_Neutral>  (387) 
0.0186024

>  <r_epik_State_Penalty>  (387) 
0.294873

>  <r_epik_Charging_Adjusted_Penalty>  (387) 
0.5224

>  <i_epik_Tot_Q>  (387) 
1

>  <i_epik_Tot_abs_Q>  (387) 
1

>  <s_lp_Force_Field>  (387) 
OPLS3e

>  <r_lp_Energy>  (387) 
96.3363

>  <b_lp_Chiralities_Consistent>  (387) 
1

>  <s_lp_Variant>  (387) 
110:0-1

>  <s_i_glide_gridfile>  (387) 
pfpi4k_grid

>  <i_i_glide_lignum>  (387) 
1

>  <i_i_glide_rotatable_bonds>  (387) 
2

>  <r_i_docking_score>  (387) 
-4.11855

>  <r_i_glide_ligand_efficiency>  (387) 
-0.205927

>  <r_i_glide_ligand_efficiency_sa>  (387) 
-0.558973

>  <r_i_glide_ligand_efficiency_ln>  (387) 
-1.03074

>  <r_i_glide_gscore>  (387) 
-4.11855

>  <r_i_glide_lipo>  (387) 
-0.870643

>  <r_i_glide_hbond>  (387) 
-0.00775719

>  <r_i_glide_metal>  (387) 
-0

>  <r_i_glide_rewards>  (387) 
-1.54798

>  <r_i_glide_evdw>  (387) 
-23.1276

>  <r_i_glide_ecoul>  (387) 
-3.57195

>  <r_i_glide_erotb>  (387) 
0

>  <r_i_glide_esite>  (387) 
0

>  <r_i_glide_emodel>  (387) 
-30.8556

>  <r_i_glide_energy>  (387) 
-26.6995

>  <r_i_glide_einternal>  (387) 
3.18007

>  <r_i_glide_intrahb_reward>  (387) 
-0

>  <i_i_glide_confnum>  (387) 
1

>  <i_i_glide_posenum>  (387) 
7

>  <r_i_glide_eff_state_penalty>  (387) 
0

>  <ligand_id>  (387) 
110

>  <original_smiles>  (387) 
CN1CCC23c4c5ccc(O)c4OC2C(=O)C(O)(C5)C13

>  <smiles>  (387) 
[H]Oc1c([H])c([H])c2c3c1OC1([H])C(=O)C(O[H])(C2([H])[H])C2([H])C31C([H])([H])C([H])([H])[N+]2([H])C([H])([H])[H]

$$$$
110:0:2
     RDKit          3D

 36 40  0  0  1  0  0  0  0  0999 V2000
    2.0829   -0.0170   -4.7888 C   0  0  0  0  0  0  0  0  0  0  0  0
    3.2426   -0.6349   -4.1349 N   0  0  1  0  0  0  0  0  0  0  0  0
    4.1388    0.4216   -3.7070 C   0  0  0  0  0  0  0  0  0  0  0  0
    4.7954   -0.0895   -2.3913 C   0  0  0  0  0  0  0  0  0  0  0  0
    4.3813   -1.5238   -2.2600 C   0  0  2  0  0  0  0  0  0  0  0  0
    4.4693   -2.2695   -0.9474 C   0  0  0  0  0  0  0  0  0  0  0  0
    3.3956   -3.0492   -0.4601 C   0  0  0  0  0  0  0  0  0  0  0  0
    3.7063   -3.9093    0.6151 C   0  0  0  0  0  0  0  0  0  0  0  0
    5.0428   -4.0916    1.0288 C   0  0  0  0  0  0  0  0  0  0  0  0
    6.0959   -3.5979    0.2249 C   0  0  0  0  0  0  0  0  0  0  0  0
    7.3791   -4.0130    0.3975 O   0  0  0  0  0  0  0  0  0  0  0  0
    5.7551   -2.7815   -0.8682 C   0  0  0  0  0  0  0  0  0  0  0  0
    6.3268   -2.8561   -2.1031 O   0  0  0  0  0  0  0  0  0  0  0  0
    5.2976   -2.4390   -3.0376 C   0  0  1  0  0  0  0  0  0  0  0  0
    4.2561   -3.4685   -3.4854 C   0  0  0  0  0  0  0  0  0  0  0  0
    4.5310   -4.4076   -4.2270 O   0  0  0  0  0  0  0  0  0  0  0  0
    2.8415   -2.9779   -3.0428 C   0  0  1  0  0  0  0  0  0  0  0  0
    1.8700   -3.1882   -4.0182 O   0  0  0  0  0  0  0  0  0  0  0  0
    2.4045   -3.4206   -1.5877 C   0  0  0  0  0  0  0  0  0  0  0  0
    3.0231   -1.4775   -2.9232 C   0  0  2  0  0  0  0  0  0  0  0  0
    1.5474    0.6549   -4.1392 H   0  0  0  0  0  0  0  0  0  0  0  0
    1.3816   -0.8254   -5.0666 H   0  0  0  0  0  0  0  0  0  0  0  0
    2.3686    0.5587   -5.6806 H   0  0  0  0  0  0  0  0  0  0  0  0
    4.6039    0.6543   -4.6433 H   0  0  0  0  0  0  0  0  0  0  0  0
    3.7110    1.3669   -3.4824 H   0  0  0  0  0  0  0  0  0  0  0  0
    5.8441    0.0593   -2.2287 H   0  0  0  0  0  0  0  0  0  0  0  0
    4.3180    0.3346   -1.5189 H   0  0  0  0  0  0  0  0  0  0  0  0
    2.9492   -4.5751    1.0019 H   0  0  0  0  0  0  0  0  0  0  0  0
    5.2713   -4.7774    1.8247 H   0  0  0  0  0  0  0  0  0  0  0  0
    7.4734   -4.6332    1.1048 H   0  0  0  0  0  0  0  0  0  0  0  0
    5.6555   -2.0288   -3.9210 H   0  0  0  0  0  0  0  0  0  0  0  0
    1.0364   -3.3484   -3.5938 H   0  0  0  0  0  0  0  0  0  0  0  0
    2.2212   -4.4897   -1.5212 H   0  0  0  0  0  0  0  0  0  0  0  0
    1.4293   -3.0106   -1.3500 H   0  0  0  0  0  0  0  0  0  0  0  0
    2.2759   -0.9801   -2.3138 H   0  0  0  0  0  0  0  0  0  0  0  0
    3.7535   -1.1794   -4.8175 H   0  0  0  0  0  0  0  0  0  0  0  0
  1  2  1  0
  1 21  1  0
  1 22  1  0
  1 23  1  0
  2 20  1  0
  2  3  1  0
  2 36  1  6
  3  4  1  0
  3 24  1  0
  3 25  1  0
  5  4  1  1
  4 26  1  0
  4 27  1  0
  5 14  1  0
  5 20  1  0
  5  6  1  0
  6 12  2  0
  6  7  1  0
  7 19  1  0
  7  8  2  0
  8  9  1  0
  8 28  1  0
  9 10  2  0
  9 29  1  0
 10 11  1  0
 10 12  1  0
 11 30  1  0
 12 13  1  0
 13 14  1  0
 14 15  1  0
 14 31  1  6
 15 16  2  0
 15 17  1  0
 17 18  1  6
 17 19  1  0
 17 20  1  0
 18 32  1  0
 19 33  1  0
 19 34  1  0
 20 35  1  1
M  CHG  1   2   1
M  END
>  <i_m_ct_stereo_status>  (388) 
1

>  <s_m_source_file>  (388) 
/var/tmp/pbs.5083858.sched01/tmpfwoas7s2/160e3gkngik.sdf

>  <i_m_source_file_index>  (388) 
1

>  <i_lp_mmshare_version>  (388) 
48012

>  <i_f3d_flags>  (388) 
0

>  <s_epik_input>  (388) 
W0NIMl0xW0NIMl1OKFtDSDNdKVtDQEhdMltDQF0oW09IXSkoW0NIMl0zKUMoPU8pW0NAQEhdNE9jNWMoW09IXSlbY0hdW2NIXWMzYzVbQ0BdMTI0

>  <s_epik_cmdline>  (388) 
J2VwaWtfcHl0aG9uJywgJy1waHQnLCAnMi4wJywgJy1waCcsICc3LjAnLCAnLXRuJywgJzgnLCAnLW1hJywgJzIwMCcsICctaW1hZScsICc8aW5maWxlLm1hZT4nLCAnLW9tYWUnLCAnPG91dGZpbGUubWFlPic=

>  <r_lp_tautomer_probability>  (388) 
1

>  <r_epik_Ionization_Penalty>  (388) 
0.246129

>  <r_epik_Ionization_Penalty_Charging>  (388) 
0.227527

>  <r_epik_Ionization_Penalty_Neutral>  (388) 
0.0186024

>  <r_epik_State_Penalty>  (388) 
0.294873

>  <r_epik_Charging_Adjusted_Penalty>  (388) 
0.5224

>  <i_epik_Tot_Q>  (388) 
1

>  <i_epik_Tot_abs_Q>  (388) 
1

>  <s_lp_Force_Field>  (388) 
OPLS3e

>  <r_lp_Energy>  (388) 
96.3363

>  <b_lp_Chiralities_Consistent>  (388) 
1

>  <s_lp_Variant>  (388) 
110:0-1

>  <s_i_glide_gridfile>  (388) 
pfpi4k_grid

>  <i_i_glide_lignum>  (388) 
1

>  <i_i_glide_rotatable_bonds>  (388) 
2

>  <r_i_docking_score>  (388) 
-2.60237

>  <r_i_glide_ligand_efficiency>  (388) 
-0.130119

>  <r_i_glide_ligand_efficiency_sa>  (388) 
-0.353196

>  <r_i_glide_ligand_efficiency_ln>  (388) 
-0.651288

>  <r_i_glide_gscore>  (388) 
-2.60237

>  <r_i_glide_lipo>  (388) 
-0.368333

>  <r_i_glide_hbond>  (388) 
0

>  <r_i_glide_metal>  (388) 
-0

>  <r_i_glide_rewards>  (388) 
-1.7286

>  <r_i_glide_evdw>  (388) 
-1.12128

>  <r_i_glide_ecoul>  (388) 
-4.64661

>  <r_i_glide_erotb>  (388) 
0

>  <r_i_glide_esite>  (388) 
0

>  <r_i_glide_emodel>  (388) 
-5.30435

>  <r_i_glide_energy>  (388) 
-5.76789

>  <r_i_glide_einternal>  (388) 
0.536058

>  <r_i_glide_intrahb_reward>  (388) 
-0

>  <i_i_glide_confnum>  (388) 
2

>  <i_i_glide_posenum>  (388) 
40

>  <r_i_glide_eff_state_penalty>  (388) 
0

>  <ligand_id>  (388) 
110

>  <original_smiles>  (388) 
CN1CCC23c4c5ccc(O)c4OC2C(=O)C(O)(C5)C13

>  <smiles>  (388) 
[H]Oc1c([H])c([H])c2c3c1OC1([H])C(=O)C(O[H])(C2([H])[H])C2([H])C31C([H])([H])C([H])([H])[N+]2([H])C([H])([H])[H]

$$$$
110:1:0
     RDKit          3D

 35 39  0  0  1  0  0  0  0  0999 V2000
    7.4043   -5.0419    1.6545 C   0  0  0  0  0  0  0  0  0  0  0  0
    7.1597   -3.8972    0.7866 N   0  0  0  0  0  0  0  0  0  0  0  0
    8.1925   -3.7365   -0.2374 C   0  0  0  0  0  0  0  0  0  0  0  0
    7.5463   -3.0300   -1.4457 C   0  0  0  0  0  0  0  0  0  0  0  0
    6.0899   -2.8696   -0.9906 C   0  0  2  0  0  0  0  0  0  0  0  0
    4.9658   -2.7489   -2.0046 C   0  0  0  0  0  0  0  0  0  0  0  0
    3.7653   -3.4745   -1.9091 C   0  0  0  0  0  0  0  0  0  0  0  0
    2.7209   -3.1099   -2.7911 C   0  0  0  0  0  0  0  0  0  0  0  0
    2.8427   -1.9396   -3.5663 C   0  0  0  0  0  0  0  0  0  0  0  0
    3.8707   -1.0253   -3.2500 C   0  0  0  0  0  0  0  0  0  0  0  0
    3.8155    0.2499   -3.7204 O   0  0  0  0  0  0  0  0  0  0  0  0
    4.8687   -1.4166   -2.3276 C   0  0  0  0  0  0  0  0  0  0  0  0
    5.4203   -0.6583   -1.3386 O   0  0  0  0  0  0  0  0  0  0  0  0
    5.8386   -1.5424   -0.2723 C   0  0  1  0  0  0  0  0  0  0  0  0
    4.7184   -2.0162    0.6861 C   0  0  0  0  0  0  0  0  0  0  0  0
    4.0438   -1.2729    1.3946 O   0  0  0  0  0  0  0  0  0  0  0  0
    4.5732   -3.5633    0.5942 C   0  0  1  0  0  0  0  0  0  0  0  0
    4.2576   -4.1589    1.8399 O   0  0  0  0  0  0  0  0  0  0  0  0
    3.5522   -4.0524   -0.4976 C   0  0  0  0  0  0  0  0  0  0  0  0
    5.9217   -3.9863    0.0192 C   0  0  2  0  0  0  0  0  0  0  0  0
    8.3644   -4.9456    2.1628 H   0  0  0  0  0  0  0  0  0  0  0  0
    7.4196   -5.9728    1.0874 H   0  0  0  0  0  0  0  0  0  0  0  0
    6.6327   -5.1212    2.4192 H   0  0  0  0  0  0  0  0  0  0  0  0
    9.0342   -3.1682    0.1560 H   0  0  0  0  0  0  0  0  0  0  0  0
    8.5856   -4.7012   -0.5529 H   0  0  0  0  0  0  0  0  0  0  0  0
    8.0381   -2.0936   -1.6947 H   0  0  0  0  0  0  0  0  0  0  0  0
    7.6169   -3.6690   -2.3214 H   0  0  0  0  0  0  0  0  0  0  0  0
    1.7769   -3.6408   -2.7622 H   0  0  0  0  0  0  0  0  0  0  0  0
    2.0392   -1.6522   -4.2273 H   0  0  0  0  0  0  0  0  0  0  0  0
    2.9952    0.6908   -3.5335 H   0  0  0  0  0  0  0  0  0  0  0  0
    6.6889   -1.1557    0.2957 H   0  0  0  0  0  0  0  0  0  0  0  0
    4.1988   -5.0956    1.7263 H   0  0  0  0  0  0  0  0  0  0  0  0
    2.5399   -3.8064   -0.1816 H   0  0  0  0  0  0  0  0  0  0  0  0
    3.5942   -5.1400   -0.5731 H   0  0  0  0  0  0  0  0  0  0  0  0
    5.8575   -4.9557   -0.4814 H   0  0  0  0  0  0  0  0  0  0  0  0
  1  2  1  0
  1 21  1  0
  1 22  1  0
  1 23  1  0
  2 20  1  0
  2  3  1  0
  3  4  1  0
  3 24  1  0
  3 25  1  0
  5  4  1  6
  4 26  1  0
  4 27  1  0
  5 14  1  0
  5 20  1  0
  5  6  1  0
  6 12  2  0
  6  7  1  0
  7 19  1  0
  7  8  2  0
  8  9  1  0
  8 28  1  0
  9 10  2  0
  9 29  1  0
 10 11  1  0
 10 12  1  0
 11 30  1  0
 12 13  1  0
 13 14  1  0
 14 15  1  0
 14 31  1  1
 15 16  2  0
 15 17  1  0
 17 18  1  1
 17 19  1  0
 17 20  1  0
 18 32  1  0
 19 33  1  0
 19 34  1  0
 20 35  1  6
M  END
>  <i_m_ct_stereo_status>  (389) 
1

>  <s_m_source_file>  (389) 
/var/tmp/pbs.5083858.sched01/tmpfwoas7s2/160e3gkngik.sdf

>  <i_m_source_file_index>  (389) 
2

>  <i_lp_mmshare_version>  (389) 
48012

>  <i_f3d_flags>  (389) 
0

>  <s_epik_input>  (389) 
W0NIMl0xW0NIMl1OKFtDSDNdKVtDQEhdMltDQF0oW09IXSkoW0NIMl0zKUMoPU8pW0NAQEhdNE9jNWMoW09IXSlbY0hdW2NIXWMzYzVbQ0BdMTI0

>  <s_epik_cmdline>  (389) 
J2VwaWtfcHl0aG9uJywgJy1waHQnLCAnMi4wJywgJy1waCcsICc3LjAnLCAnLXRuJywgJzgnLCAnLW1hJywgJzIwMCcsICctaW1hZScsICc8aW5maWxlLm1hZT4nLCAnLW9tYWUnLCAnPG91dGZpbGUubWFlPic=

>  <r_lp_tautomer_probability>  (389) 
1

>  <r_epik_Ionization_Penalty>  (389) 
0.68217

>  <r_epik_Ionization_Penalty_Charging>  (389) 
0

>  <r_epik_Ionization_Penalty_Neutral>  (389) 
0.68217

>  <r_epik_State_Penalty>  (389) 
0.576658

>  <r_epik_Charging_Adjusted_Penalty>  (389) 
0.576658

>  <i_epik_Tot_Q>  (389) 
0

>  <i_epik_Tot_abs_Q>  (389) 
0

>  <s_lp_Force_Field>  (389) 
OPLS3e

>  <r_lp_Energy>  (389) 
91.0077

>  <b_lp_Chiralities_Consistent>  (389) 
1

>  <s_lp_Variant>  (389) 
110:0-2

>  <s_i_glide_gridfile>  (389) 
pfpi4k_grid

>  <i_i_glide_lignum>  (389) 
2

>  <i_i_glide_rotatable_bonds>  (389) 
2

>  <r_i_docking_score>  (389) 
-3.96962

>  <r_i_glide_ligand_efficiency>  (389) 
-0.198481

>  <r_i_glide_ligand_efficiency_sa>  (389) 
-0.538761

>  <r_i_glide_ligand_efficiency_ln>  (389) 
-0.993465

>  <r_i_glide_gscore>  (389) 
-3.96962

>  <r_i_glide_lipo>  (389) 
-0.761462

>  <r_i_glide_hbond>  (389) 
-0.00714886

>  <r_i_glide_metal>  (389) 
-0

>  <r_i_glide_rewards>  (389) 
-1.56205

>  <r_i_glide_evdw>  (389) 
-23.7587

>  <r_i_glide_ecoul>  (389) 
-3.00683

>  <r_i_glide_erotb>  (389) 
0

>  <r_i_glide_esite>  (389) 
0

>  <r_i_glide_emodel>  (389) 
-31.3398

>  <r_i_glide_energy>  (389) 
-26.7656

>  <r_i_glide_einternal>  (389) 
2.03942

>  <r_i_glide_intrahb_reward>  (389) 
-0

>  <i_i_glide_confnum>  (389) 
1

>  <i_i_glide_posenum>  (389) 
13

>  <r_i_glide_eff_state_penalty>  (389) 
0

>  <ligand_id>  (389) 
110

>  <original_smiles>  (389) 
CN1CCC23c4c5ccc(O)c4OC2C(=O)C(O)(C5)C13

>  <smiles>  (389) 
[H]Oc1c([H])c([H])c2c3c1OC1([H])C(=O)C(O[H])(C2([H])[H])C2([H])N(C([H])([H])[H])C([H])([H])C([H])([H])C312

$$$$
110:1:1
     RDKit          3D

 35 39  0  0  1  0  0  0  0  0999 V2000
    7.3069   -4.9626    1.6639 C   0  0  0  0  0  0  0  0  0  0  0  0
    7.0857   -3.8432    0.7570 N   0  0  0  0  0  0  0  0  0  0  0  0
    8.1115   -3.7599   -0.2851 C   0  0  0  0  0  0  0  0  0  0  0  0
    7.4700   -3.0897   -1.5209 C   0  0  0  0  0  0  0  0  0  0  0  0
    6.0260   -2.8684   -1.0584 C   0  0  2  0  0  0  0  0  0  0  0  0
    4.8891   -2.7641   -2.0639 C   0  0  0  0  0  0  0  0  0  0  0  0
    3.6765   -3.4546   -1.9340 C   0  0  0  0  0  0  0  0  0  0  0  0
    2.6255   -3.0863   -2.8076 C   0  0  0  0  0  0  0  0  0  0  0  0
    2.7743   -1.9453   -3.6291 C   0  0  0  0  0  0  0  0  0  0  0  0
    3.8374   -1.0560   -3.3688 C   0  0  0  0  0  0  0  0  0  0  0  0
    3.8177    0.2023   -3.8859 O   0  0  0  0  0  0  0  0  0  0  0  0
    4.8277   -1.4451   -2.4460 C   0  0  0  0  0  0  0  0  0  0  0  0
    5.4187   -0.6542   -1.4990 O   0  0  0  0  0  0  0  0  0  0  0  0
    5.8246   -1.5057   -0.3977 C   0  0  1  0  0  0  0  0  0  0  0  0
    4.7017   -1.9038    0.5920 C   0  0  0  0  0  0  0  0  0  0  0  0
    4.0780   -1.1155    1.2951 O   0  0  0  0  0  0  0  0  0  0  0  0
    4.5064   -3.4492    0.5668 C   0  0  1  0  0  0  0  0  0  0  0  0
    4.1789   -3.9873    1.8360 O   0  0  0  0  0  0  0  0  0  0  0  0
    3.4612   -3.9527   -0.4912 C   0  0  0  0  0  0  0  0  0  0  0  0
    5.8379   -3.9320    0.0040 C   0  0  2  0  0  0  0  0  0  0  0  0
    8.2770   -4.8761    2.1559 H   0  0  0  0  0  0  0  0  0  0  0  0
    7.2871   -5.9164    1.1361 H   0  0  0  0  0  0  0  0  0  0  0  0
    6.5448   -4.9952    2.4413 H   0  0  0  0  0  0  0  0  0  0  0  0
    8.9801   -3.2053    0.0709 H   0  0  0  0  0  0  0  0  0  0  0  0
    8.4756   -4.7487   -0.5574 H   0  0  0  0  0  0  0  0  0  0  0  0
    7.9924   -2.1850   -1.8198 H   0  0  0  0  0  0  0  0  0  0  0  0
    7.5108   -3.7720   -2.3689 H   0  0  0  0  0  0  0  0  0  0  0  0
    1.6640   -3.5729   -2.7361 H   0  0  0  0  0  0  0  0  0  0  0  0
    1.9693   -1.6612   -4.2883 H   0  0  0  0  0  0  0  0  0  0  0  0
    2.9654    0.6112   -3.8607 H   0  0  0  0  0  0  0  0  0  0  0  0
    6.6911   -1.1157    0.1398 H   0  0  0  0  0  0  0  0  0  0  0  0
    4.8707   -3.7654    2.4396 H   0  0  0  0  0  0  0  0  0  0  0  0
    2.4638   -3.6578   -0.1688 H   0  0  0  0  0  0  0  0  0  0  0  0
    3.4653   -5.0437   -0.5020 H   0  0  0  0  0  0  0  0  0  0  0  0
    5.7457   -4.9178   -0.4528 H   0  0  0  0  0  0  0  0  0  0  0  0
  1  2  1  0
  1 21  1  0
  1 22  1  0
  1 23  1  0
  2 20  1  0
  2  3  1  0
  3  4  1  0
  3 24  1  0
  3 25  1  0
  5  4  1  6
  4 26  1  0
  4 27  1  0
  5 14  1  0
  5 20  1  0
  5  6  1  0
  6 12  2  0
  6  7  1  0
  7 19  1  0
  7  8  2  0
  8  9  1  0
  8 28  1  0
  9 10  2  0
  9 29  1  0
 10 11  1  0
 10 12  1  0
 11 30  1  0
 12 13  1  0
 13 14  1  0
 14 15  1  0
 14 31  1  1
 15 16  2  0
 15 17  1  0
 17 18  1  1
 17 19  1  0
 17 20  1  0
 18 32  1  0
 19 33  1  0
 19 34  1  0
 20 35  1  6
M  END
>  <i_m_ct_stereo_status>  (390) 
1

>  <s_m_source_file>  (390) 
/var/tmp/pbs.5083858.sched01/tmpfwoas7s2/160e3gkngik.sdf

>  <i_m_source_file_index>  (390) 
2

>  <i_lp_mmshare_version>  (390) 
48012

>  <i_f3d_flags>  (390) 
0

>  <s_epik_input>  (390) 
W0NIMl0xW0NIMl1OKFtDSDNdKVtDQEhdMltDQF0oW09IXSkoW0NIMl0zKUMoPU8pW0NAQEhdNE9jNWMoW09IXSlbY0hdW2NIXWMzYzVbQ0BdMTI0

>  <s_epik_cmdline>  (390) 
J2VwaWtfcHl0aG9uJywgJy1waHQnLCAnMi4wJywgJy1waCcsICc3LjAnLCAnLXRuJywgJzgnLCAnLW1hJywgJzIwMCcsICctaW1hZScsICc8aW5maWxlLm1hZT4nLCAnLW9tYWUnLCAnPG91dGZpbGUubWFlPic=

>  <r_lp_tautomer_probability>  (390) 
1

>  <r_epik_Ionization_Penalty>  (390) 
0.68217

>  <r_epik_Ionization_Penalty_Charging>  (390) 
0

>  <r_epik_Ionization_Penalty_Neutral>  (390) 
0.68217

>  <r_epik_State_Penalty>  (390) 
0.576658

>  <r_epik_Charging_Adjusted_Penalty>  (390) 
0.576658

>  <i_epik_Tot_Q>  (390) 
0

>  <i_epik_Tot_abs_Q>  (390) 
0

>  <s_lp_Force_Field>  (390) 
OPLS3e

>  <r_lp_Energy>  (390) 
91.0077

>  <b_lp_Chiralities_Consistent>  (390) 
1

>  <s_lp_Variant>  (390) 
110:0-2

>  <s_i_glide_gridfile>  (390) 
pfpi4k_grid

>  <i_i_glide_lignum>  (390) 
2

>  <i_i_glide_rotatable_bonds>  (390) 
2

>  <r_i_docking_score>  (390) 
-3.91791

>  <r_i_glide_ligand_efficiency>  (390) 
-0.195895

>  <r_i_glide_ligand_efficiency_sa>  (390) 
-0.531742

>  <r_i_glide_ligand_efficiency_ln>  (390) 
-0.980524

>  <r_i_glide_gscore>  (390) 
-3.91791

>  <r_i_glide_lipo>  (390) 
-0.849645

>  <r_i_glide_hbond>  (390) 
-0.00780742

>  <r_i_glide_metal>  (390) 
-0

>  <r_i_glide_rewards>  (390) 
-1.55758

>  <r_i_glide_evdw>  (390) 
-24.0369

>  <r_i_glide_ecoul>  (390) 
-2.00687

>  <r_i_glide_erotb>  (390) 
0

>  <r_i_glide_esite>  (390) 
0

>  <r_i_glide_emodel>  (390) 
-30.1184

>  <r_i_glide_energy>  (390) 
-26.0437

>  <r_i_glide_einternal>  (390) 
3.03102

>  <r_i_glide_intrahb_reward>  (390) 
-0

>  <i_i_glide_confnum>  (390) 
2

>  <i_i_glide_posenum>  (390) 
12

>  <r_i_glide_eff_state_penalty>  (390) 
0

>  <ligand_id>  (390) 
110

>  <original_smiles>  (390) 
CN1CCC23c4c5ccc(O)c4OC2C(=O)C(O)(C5)C13

>  <smiles>  (390) 
[H]Oc1c([H])c([H])c2c3c1OC1([H])C(=O)C(O[H])(C2([H])[H])C2([H])N(C([H])([H])[H])C([H])([H])C([H])([H])C312

$$$$
110:1:2
     RDKit          3D

 35 39  0  0  1  0  0  0  0  0999 V2000
    2.4099    0.0563   -4.5952 C   0  0  0  0  0  0  0  0  0  0  0  0
    3.4989   -0.6019   -3.8892 N   0  0  0  0  0  0  0  0  0  0  0  0
    4.2824    0.3285   -3.0816 C   0  0  0  0  0  0  0  0  0  0  0  0
    4.8598   -0.4092   -1.8713 C   0  0  0  0  0  0  0  0  0  0  0  0
    4.3178   -1.8014   -2.0604 C   0  0  2  0  0  0  0  0  0  0  0  0
    4.1830   -2.7275   -0.8710 C   0  0  0  0  0  0  0  0  0  0  0  0
    2.9976   -3.4254   -0.5836 C   0  0  0  0  0  0  0  0  0  0  0  0
    3.1055   -4.4496    0.3851 C   0  0  0  0  0  0  0  0  0  0  0  0
    4.3788   -4.8144    0.8887 C   0  0  0  0  0  0  0  0  0  0  0  0
    5.5416   -4.3262    0.2752 C   0  0  0  0  0  0  0  0  0  0  0  0
    6.7674   -4.8461    0.5699 O   0  0  0  0  0  0  0  0  0  0  0  0
    5.4036   -3.3670   -0.7437 C   0  0  0  0  0  0  0  0  0  0  0  0
    6.1271   -3.3106   -1.9013 O   0  0  0  0  0  0  0  0  0  0  0  0
    5.2535   -2.6862   -2.8806 C   0  0  1  0  0  0  0  0  0  0  0  0
    4.1720   -3.5406   -3.5500 C   0  0  0  0  0  0  0  0  0  0  0  0
    4.4493   -4.4503   -4.3322 O   0  0  0  0  0  0  0  0  0  0  0  0
    2.7526   -3.0042   -3.1835 C   0  0  1  0  0  0  0  0  0  0  0  0
    1.8084   -3.1036   -4.2108 O   0  0  0  0  0  0  0  0  0  0  0  0
    2.1113   -3.5403   -1.8464 C   0  0  0  0  0  0  0  0  0  0  0  0
    3.0576   -1.5596   -2.8716 C   0  0  2  0  0  0  0  0  0  0  0  0
    2.7651    0.8179   -5.2869 H   0  0  0  0  0  0  0  0  0  0  0  0
    1.7863    0.5600   -3.8798 H   0  0  0  0  0  0  0  0  0  0  0  0
    1.7745   -0.6517   -5.1252 H   0  0  0  0  0  0  0  0  0  0  0  0
    4.8838    1.0125   -3.6278 H   0  0  0  0  0  0  0  0  0  0  0  0
    3.8040    1.1659   -2.7094 H   0  0  0  0  0  0  0  0  0  0  0  0
    5.9284   -0.4045   -1.8769 H   0  0  0  0  0  0  0  0  0  0  0  0
    4.5036    0.0387   -0.9403 H   0  0  0  0  0  0  0  0  0  0  0  0
    2.2663   -5.0913    0.5976 H   0  0  0  0  0  0  0  0  0  0  0  0
    4.4726   -5.6128    1.6025 H   0  0  0  0  0  0  0  0  0  0  0  0
    7.4802   -4.3396    0.2132 H   0  0  0  0  0  0  0  0  0  0  0  0
    5.8034   -2.2593   -3.7031 H   0  0  0  0  0  0  0  0  0  0  0  0
    1.1692   -3.7605   -3.9740 H   0  0  0  0  0  0  0  0  0  0  0  0
    1.8081   -4.5737   -1.9545 H   0  0  0  0  0  0  0  0  0  0  0  0
    1.1618   -3.0551   -1.6544 H   0  0  0  0  0  0  0  0  0  0  0  0
    2.2720   -1.1089   -2.2732 H   0  0  0  0  0  0  0  0  0  0  0  0
  1  2  1  0
  1 21  1  0
  1 22  1  0
  1 23  1  0
  2 20  1  0
  2  3  1  0
  3  4  1  0
  3 24  1  0
  3 25  1  0
  5  4  1  1
  4 26  1  0
  4 27  1  0
  5 14  1  0
  5 20  1  0
  5  6  1  0
  6 12  2  0
  6  7  1  0
  7 19  1  0
  7  8  2  0
  8  9  1  0
  8 28  1  0
  9 10  2  0
  9 29  1  0
 10 11  1  0
 10 12  1  0
 11 30  1  0
 12 13  1  0
 13 14  1  0
 14 15  1  0
 14 31  1  6
 15 16  2  0
 15 17  1  0
 17 18  1  6
 17 19  1  0
 17 20  1  0
 18 32  1  0
 19 33  1  0
 19 34  1  0
 20 35  1  1
M  END
>  <i_m_ct_stereo_status>  (391) 
1

>  <s_m_source_file>  (391) 
/var/tmp/pbs.5083858.sched01/tmpfwoas7s2/160e3gkngik.sdf

>  <i_m_source_file_index>  (391) 
2

>  <i_lp_mmshare_version>  (391) 
48012

>  <i_f3d_flags>  (391) 
0

>  <s_epik_input>  (391) 
W0NIMl0xW0NIMl1OKFtDSDNdKVtDQEhdMltDQF0oW09IXSkoW0NIMl0zKUMoPU8pW0NAQEhdNE9jNWMoW09IXSlbY0hdW2NIXWMzYzVbQ0BdMTI0

>  <s_epik_cmdline>  (391) 
J2VwaWtfcHl0aG9uJywgJy1waHQnLCAnMi4wJywgJy1waCcsICc3LjAnLCAnLXRuJywgJzgnLCAnLW1hJywgJzIwMCcsICctaW1hZScsICc8aW5maWxlLm1hZT4nLCAnLW9tYWUnLCAnPG91dGZpbGUubWFlPic=

>  <r_lp_tautomer_probability>  (391) 
1

>  <r_epik_Ionization_Penalty>  (391) 
0.68217

>  <r_epik_Ionization_Penalty_Charging>  (391) 
0

>  <r_epik_Ionization_Penalty_Neutral>  (391) 
0.68217

>  <r_epik_State_Penalty>  (391) 
0.576658

>  <r_epik_Charging_Adjusted_Penalty>  (391) 
0.576658

>  <i_epik_Tot_Q>  (391) 
0

>  <i_epik_Tot_abs_Q>  (391) 
0

>  <s_lp_Force_Field>  (391) 
OPLS3e

>  <r_lp_Energy>  (391) 
91.0077

>  <b_lp_Chiralities_Consistent>  (391) 
1

>  <s_lp_Variant>  (391) 
110:0-2

>  <s_i_glide_gridfile>  (391) 
pfpi4k_grid

>  <i_i_glide_lignum>  (391) 
2

>  <i_i_glide_rotatable_bonds>  (391) 
2

>  <r_i_docking_score>  (391) 
-3.66799

>  <r_i_glide_ligand_efficiency>  (391) 
-0.1834

>  <r_i_glide_ligand_efficiency_sa>  (391) 
-0.497823

>  <r_i_glide_ligand_efficiency_ln>  (391) 
-0.917978

>  <r_i_glide_gscore>  (391) 
-3.66799

>  <r_i_glide_lipo>  (391) 
-0.594708

>  <r_i_glide_hbond>  (391) 
0

>  <r_i_glide_metal>  (391) 
-0

>  <r_i_glide_rewards>  (391) 
-1.70002

>  <r_i_glide_evdw>  (391) 
-5.98239

>  <r_i_glide_ecoul>  (391) 
-7.16098

>  <r_i_glide_erotb>  (391) 
0

>  <r_i_glide_esite>  (391) 
0

>  <r_i_glide_emodel>  (391) 
-16.2751

>  <r_i_glide_energy>  (391) 
-13.1434

>  <r_i_glide_einternal>  (391) 
3.14255

>  <r_i_glide_intrahb_reward>  (391) 
-0

>  <i_i_glide_confnum>  (391) 
1

>  <i_i_glide_posenum>  (391) 
26

>  <r_i_glide_eff_state_penalty>  (391) 
0

>  <ligand_id>  (391) 
110

>  <original_smiles>  (391) 
CN1CCC23c4c5ccc(O)c4OC2C(=O)C(O)(C5)C13

>  <smiles>  (391) 
[H]Oc1c([H])c([H])c2c3c1OC1([H])C(=O)C(O[H])(C2([H])[H])C2([H])N(C([H])([H])[H])C([H])([H])C([H])([H])C312

$$$$
110:2:0
     RDKit          3D

 35 39  0  0  1  0  0  0  0  0999 V2000
    4.3697   -2.8609    3.9534 C   0  0  0  0  0  0  0  0  0  0  0  0
    4.5777   -3.4261    2.5995 N   0  0  1  0  0  0  0  0  0  0  0  0
    3.8284   -4.6927    2.3514 C   0  0  0  0  0  0  0  0  0  0  0  0
    3.3943   -4.6900    0.8682 C   0  0  0  0  0  0  0  0  0  0  0  0
    4.1470   -3.4846    0.3067 C   0  0  2  0  0  0  0  0  0  0  0  0
    3.7206   -2.8425   -0.9995 C   0  0  0  0  0  0  0  0  0  0  0  0
    3.5578   -1.4577   -1.1759 C   0  0  0  0  0  0  0  0  0  0  0  0
    3.4112   -1.0126   -2.5139 C   0  0  0  0  0  0  0  0  0  0  0  0
    3.5862   -1.9156   -3.5875 C   0  0  0  0  0  0  0  0  0  0  0  0
    4.1602   -3.1763   -3.3249 C   0  0  0  0  0  0  0  0  0  0  0  0
    4.6089   -3.9632   -4.3245 O   0  0  0  0  0  0  0  0  0  0  0  0
    4.3658   -3.5561   -1.9867 C   0  0  0  0  0  0  0  0  0  0  0  0
    5.4390   -4.2387   -1.4807 O   0  0  0  0  0  0  0  0  0  0  0  0
    5.5817   -3.8430   -0.0964 C   0  0  1  0  0  0  0  0  0  0  0  0
    6.2263   -2.4572    0.1683 C   0  0  0  0  0  0  0  0  0  0  0  0
    7.3769   -2.1265   -0.1255 O   0  0  0  0  0  0  0  0  0  0  0  0
    5.1995   -1.5382    0.8931 C   0  0  1  0  0  0  0  0  0  0  0  0
    5.8152   -0.6968    1.8469 O   0  0  0  0  0  0  0  0  0  0  0  0
    4.3075   -0.6740   -0.0763 C   0  0  0  0  0  0  0  0  0  0  0  0
    4.1973   -2.5329    1.4767 C   0  0  2  0  0  0  0  0  0  0  0  0
    3.3206   -2.6095    4.1225 H   0  0  0  0  0  0  0  0  0  0  0  0
    4.9720   -1.9613    4.0951 H   0  0  0  0  0  0  0  0  0  0  0  0
    4.6703   -3.5842    4.7163 H   0  0  0  0  0  0  0  0  0  0  0  0
    4.4526   -5.5528    2.5955 H   0  0  0  0  0  0  0  0  0  0  0  0
    2.9477   -4.7584    2.9899 H   0  0  0  0  0  0  0  0  0  0  0  0
    3.6295   -5.6229    0.3521 H   0  0  0  0  0  0  0  0  0  0  0  0
    2.3182   -4.5267    0.8040 H   0  0  0  0  0  0  0  0  0  0  0  0
    3.3197    0.0423   -2.7386 H   0  0  0  0  0  0  0  0  0  0  0  0
    3.4844   -1.5735   -4.6062 H   0  0  0  0  0  0  0  0  0  0  0  0
    6.0556   -4.6192    0.5072 H   0  0  0  0  0  0  0  0  0  0  0  0
    6.4596   -0.1629    1.3923 H   0  0  0  0  0  0  0  0  0  0  0  0
    4.9366    0.0698   -0.5588 H   0  0  0  0  0  0  0  0  0  0  0  0
    3.5587   -0.1207    0.4941 H   0  0  0  0  0  0  0  0  0  0  0  0
    3.2249   -2.0795    1.6752 H   0  0  0  0  0  0  0  0  0  0  0  0
    5.5620   -3.6456    2.5094 H   0  0  0  0  0  0  0  0  0  0  0  0
  1  2  1  0
  1 21  1  0
  1 22  1  0
  1 23  1  0
  2 20  1  0
  2  3  1  0
  2 35  1  6
  3  4  1  0
  3 24  1  0
  3 25  1  0
  5  4  1  1
  4 26  1  0
  4 27  1  0
  5 14  1  0
  5 20  1  0
  5  6  1  0
  6 12  2  0
  6  7  1  0
  7 19  1  0
  7  8  2  0
  8  9  1  0
  8 28  1  0
  9 10  2  0
  9 29  1  0
 10 11  1  0
 10 12  1  0
 12 13  1  0
 13 14  1  0
 14 15  1  0
 14 30  1  1
 15 16  2  0
 15 17  1  0
 17 18  1  1
 17 19  1  0
 17 20  1  0
 18 31  1  0
 19 32  1  0
 19 33  1  0
 20 34  1  1
M  CHG  2   2   1  11  -1
M  END
>  <i_m_ct_stereo_status>  (392) 
1

>  <s_m_source_file>  (392) 
/var/tmp/pbs.5083858.sched01/tmpfwoas7s2/160e3gkngik.sdf

>  <i_m_source_file_index>  (392) 
3

>  <i_lp_mmshare_version>  (392) 
48012

>  <i_f3d_flags>  (392) 
0

>  <s_epik_input>  (392) 
W0NIMl0xW0NIMl1OKFtDSDNdKVtDQEhdMltDQF0oW09IXSkoW0NIMl0zKUMoPU8pW0NAQEhdNE9jNWMoW09IXSlbY0hdW2NIXWMzYzVbQ0BdMTI0

>  <s_epik_cmdline>  (392) 
J2VwaWtfcHl0aG9uJywgJy1waHQnLCAnMi4wJywgJy1waCcsICc3LjAnLCAnLXRuJywgJzgnLCAnLW1hJywgJzIwMCcsICctaW1hZScsICc8aW5maWxlLm1hZT4nLCAnLW9tYWUnLCAnPG91dGZpbGUubWFlPic=

>  <r_epik_Ionization_Penalty>  (392) 
2.27651

>  <r_epik_Ionization_Penalty_Charging>  (392) 
2.27647

>  <r_epik_Ionization_Penalty_Neutral>  (392) 
3.89076e-05

>  <r_epik_State_Penalty>  (392) 
2.67317

>  <r_epik_Charging_Adjusted_Penalty>  (392) 
4.94964

>  <i_epik_Tot_Q>  (392) 
0

>  <i_epik_Tot_abs_Q>  (392) 
2

>  <s_lp_Force_Field>  (392) 
OPLS3e

>  <r_lp_Energy>  (392) 
93.8097

>  <b_lp_Chiralities_Consistent>  (392) 
1

>  <s_lp_Variant>  (392) 
110:0-3

>  <s_i_glide_gridfile>  (392) 
pfpi4k_grid

>  <i_i_glide_lignum>  (392) 
3

>  <i_i_glide_rotatable_bonds>  (392) 
1

>  <r_i_docking_score>  (392) 
-3.66456

>  <r_i_glide_ligand_efficiency>  (392) 
-0.183228

>  <r_i_glide_ligand_efficiency_sa>  (392) 
-0.497357

>  <r_i_glide_ligand_efficiency_ln>  (392) 
-0.917118

>  <r_i_glide_gscore>  (392) 
-3.66456

>  <r_i_glide_lipo>  (392) 
-0.533303

>  <r_i_glide_hbond>  (392) 
-0.093955

>  <r_i_glide_metal>  (392) 
-0

>  <r_i_glide_rewards>  (392) 
-1.59939

>  <r_i_glide_evdw>  (392) 
-18.8698

>  <r_i_glide_ecoul>  (392) 
-3.29615

>  <r_i_glide_erotb>  (392) 
0

>  <r_i_glide_esite>  (392) 
0

>  <r_i_glide_emodel>  (392) 
-26.6719

>  <r_i_glide_energy>  (392) 
-22.166

>  <r_i_glide_einternal>  (392) 
1.78789

>  <r_i_glide_intrahb_reward>  (392) 
-0

>  <i_i_glide_confnum>  (392) 
2

>  <i_i_glide_posenum>  (392) 
34

>  <r_i_glide_eff_state_penalty>  (392) 
0

>  <ligand_id>  (392) 
110

>  <original_smiles>  (392) 
CN1CCC23c4c5ccc(O)c4OC2C(=O)C(O)(C5)C13

>  <smiles>  (392) 
[H]OC12C(=O)C3([H])Oc4c([O-])c([H])c([H])c(c4C34C([H])([H])C([H])([H])[N+]([H])(C([H])([H])[H])C14[H])C2([H])[H]

$$$$
110:2:1
     RDKit          3D

 35 39  0  0  1  0  0  0  0  0999 V2000
    7.4087   -4.8599    1.5669 C   0  0  0  0  0  0  0  0  0  0  0  0
    7.1058   -3.7477    0.6486 N   0  0  1  0  0  0  0  0  0  0  0  0
    8.1651   -3.5155   -0.3652 C   0  0  0  0  0  0  0  0  0  0  0  0
    7.4631   -3.0588   -1.6638 C   0  0  0  0  0  0  0  0  0  0  0  0
    6.0246   -2.8418   -1.2045 C   0  0  2  0  0  0  0  0  0  0  0  0
    4.8876   -2.7745   -2.2072 C   0  0  0  0  0  0  0  0  0  0  0  0
    3.6724   -3.4669   -2.0464 C   0  0  0  0  0  0  0  0  0  0  0  0
    2.6296   -3.1318   -2.9302 C   0  0  0  0  0  0  0  0  0  0  0  0
    2.7797   -2.0293   -3.8005 C   0  0  0  0  0  0  0  0  0  0  0  0
    3.8488   -1.1245   -3.5978 C   0  0  0  0  0  0  0  0  0  0  0  0
    3.8144    0.1029   -4.2010 O   0  0  0  0  0  0  0  0  0  0  0  0
    4.8298   -1.4744   -2.6403 C   0  0  0  0  0  0  0  0  0  0  0  0
    5.4179   -0.6509   -1.7126 O   0  0  0  0  0  0  0  0  0  0  0  0
    5.8203   -1.4656   -0.5884 C   0  0  1  0  0  0  0  0  0  0  0  0
    4.7077   -1.8312    0.4140 C   0  0  0  0  0  0  0  0  0  0  0  0
    4.0999   -1.0267    1.1136 O   0  0  0  0  0  0  0  0  0  0  0  0
    4.5277   -3.3762    0.4552 C   0  0  1  0  0  0  0  0  0  0  0  0
    4.2548   -3.8785    1.7538 O   0  0  0  0  0  0  0  0  0  0  0  0
    3.4669   -3.9113   -0.5811 C   0  0  0  0  0  0  0  0  0  0  0  0
    5.8464   -3.8790   -0.1178 C   0  0  2  0  0  0  0  0  0  0  0  0
    7.4929   -5.8163    1.0478 H   0  0  0  0  0  0  0  0  0  0  0  0
    6.6405   -4.9657    2.3336 H   0  0  0  0  0  0  0  0  0  0  0  0
    8.3568   -4.7010    2.0840 H   0  0  0  0  0  0  0  0  0  0  0  0
    8.8945   -2.7885   -0.0185 H   0  0  0  0  0  0  0  0  0  0  0  0
    8.7367   -4.4221   -0.5636 H   0  0  0  0  0  0  0  0  0  0  0  0
    7.9372   -2.1868   -2.1153 H   0  0  0  0  0  0  0  0  0  0  0  0
    7.5138   -3.8495   -2.4020 H   0  0  0  0  0  0  0  0  0  0  0  0
    1.6661   -3.6051   -2.8451 H   0  0  0  0  0  0  0  0  0  0  0  0
    1.9632   -1.7337   -4.4298 H   0  0  0  0  0  0  0  0  0  0  0  0
    6.6821   -1.0494   -0.0626 H   0  0  0  0  0  0  0  0  0  0  0  0
    4.0438   -4.7993    1.6894 H   0  0  0  0  0  0  0  0  0  0  0  0
    2.4719   -3.5973   -0.2774 H   0  0  0  0  0  0  0  0  0  0  0  0
    3.4544   -5.0017   -0.5789 H   0  0  0  0  0  0  0  0  0  0  0  0
    5.7700   -4.8880   -0.5297 H   0  0  0  0  0  0  0  0  0  0  0  0
    7.0556   -2.9165    1.2096 H   0  0  0  0  0  0  0  0  0  0  0  0
  1  2  1  0
  1 21  1  0
  1 22  1  0
  1 23  1  0
  2 20  1  0
  2  3  1  0
  2 35  1  1
  3  4  1  0
  3 24  1  0
  3 25  1  0
  5  4  1  6
  4 26  1  0
  4 27  1  0
  5 14  1  0
  5 20  1  0
  5  6  1  0
  6 12  2  0
  6  7  1  0
  7 19  1  0
  7  8  2  0
  8  9  1  0
  8 28  1  0
  9 10  2  0
  9 29  1  0
 10 11  1  0
 10 12  1  0
 12 13  1  0
 13 14  1  0
 14 15  1  0
 14 30  1  1
 15 16  2  0
 15 17  1  0
 17 18  1  1
 17 19  1  0
 17 20  1  0
 18 31  1  0
 19 32  1  0
 19 33  1  0
 20 34  1  6
M  CHG  2   2   1  11  -1
M  END
>  <i_m_ct_stereo_status>  (393) 
1

>  <s_m_source_file>  (393) 
/var/tmp/pbs.5083858.sched01/tmpfwoas7s2/160e3gkngik.sdf

>  <i_m_source_file_index>  (393) 
3

>  <i_lp_mmshare_version>  (393) 
48012

>  <i_f3d_flags>  (393) 
0

>  <s_epik_input>  (393) 
W0NIMl0xW0NIMl1OKFtDSDNdKVtDQEhdMltDQF0oW09IXSkoW0NIMl0zKUMoPU8pW0NAQEhdNE9jNWMoW09IXSlbY0hdW2NIXWMzYzVbQ0BdMTI0

>  <s_epik_cmdline>  (393) 
J2VwaWtfcHl0aG9uJywgJy1waHQnLCAnMi4wJywgJy1waCcsICc3LjAnLCAnLXRuJywgJzgnLCAnLW1hJywgJzIwMCcsICctaW1hZScsICc8aW5maWxlLm1hZT4nLCAnLW9tYWUnLCAnPG91dGZpbGUubWFlPic=

>  <r_epik_Ionization_Penalty>  (393) 
2.27651

>  <r_epik_Ionization_Penalty_Charging>  (393) 
2.27647

>  <r_epik_Ionization_Penalty_Neutral>  (393) 
3.89076e-05

>  <r_epik_State_Penalty>  (393) 
2.67317

>  <r_epik_Charging_Adjusted_Penalty>  (393) 
4.94964

>  <i_epik_Tot_Q>  (393) 
0

>  <i_epik_Tot_abs_Q>  (393) 
2

>  <s_lp_Force_Field>  (393) 
OPLS3e

>  <r_lp_Energy>  (393) 
93.8097

>  <b_lp_Chiralities_Consistent>  (393) 
1

>  <s_lp_Variant>  (393) 
110:0-3

>  <s_i_glide_gridfile>  (393) 
pfpi4k_grid

>  <i_i_glide_lignum>  (393) 
3

>  <i_i_glide_rotatable_bonds>  (393) 
1

>  <r_i_docking_score>  (393) 
-3.62325

>  <r_i_glide_ligand_efficiency>  (393) 
-0.181163

>  <r_i_glide_ligand_efficiency_sa>  (393) 
-0.491751

>  <r_i_glide_ligand_efficiency_ln>  (393) 
-0.90678

>  <r_i_glide_gscore>  (393) 
-3.62325

>  <r_i_glide_lipo>  (393) 
-0.947742

>  <r_i_glide_hbond>  (393) 
-0.00729099

>  <r_i_glide_metal>  (393) 
-0

>  <r_i_glide_rewards>  (393) 
-1.55152

>  <r_i_glide_evdw>  (393) 
-21.0268

>  <r_i_glide_ecoul>  (393) 
-0.435723

>  <r_i_glide_erotb>  (393) 
0

>  <r_i_glide_esite>  (393) 
0

>  <r_i_glide_emodel>  (393) 
-26.7764

>  <r_i_glide_energy>  (393) 
-21.4625

>  <r_i_glide_einternal>  (393) 
0.00324919

>  <r_i_glide_intrahb_reward>  (393) 
-0

>  <i_i_glide_confnum>  (393) 
1

>  <i_i_glide_posenum>  (393) 
15

>  <r_i_glide_eff_state_penalty>  (393) 
0

>  <ligand_id>  (393) 
110

>  <original_smiles>  (393) 
CN1CCC23c4c5ccc(O)c4OC2C(=O)C(O)(C5)C13

>  <smiles>  (393) 
[H]OC12C(=O)C3([H])Oc4c([O-])c([H])c([H])c(c4C34C([H])([H])C([H])([H])[N+]([H])(C([H])([H])[H])C14[H])C2([H])[H]

$$$$
110:2:2
     RDKit          3D

 35 39  0  0  1  0  0  0  0  0999 V2000
    6.3126   -5.1949    2.2993 C   0  0  0  0  0  0  0  0  0  0  0  0
    6.2404   -3.9940    1.4340 N   0  0  1  0  0  0  0  0  0  0  0  0
    7.5039   -3.7195    0.6889 C   0  0  0  0  0  0  0  0  0  0  0  0
    7.1134   -3.1241   -0.6808 C   0  0  0  0  0  0  0  0  0  0  0  0
    5.6085   -2.9052   -0.5318 C   0  0  2  0  0  0  0  0  0  0  0  0
    4.7246   -2.7360   -1.7467 C   0  0  0  0  0  0  0  0  0  0  0  0
    3.5155   -3.4434   -1.9353 C   0  0  0  0  0  0  0  0  0  0  0  0
    2.6946   -2.9912   -2.9965 C   0  0  0  0  0  0  0  0  0  0  0  0
    3.0252   -1.8070   -3.6919 C   0  0  0  0  0  0  0  0  0  0  0  0
    4.0318   -0.9623   -3.1764 C   0  0  0  0  0  0  0  0  0  0  0  0
    4.1685    0.2985   -3.6626 O   0  0  0  0  0  0  0  0  0  0  0  0
    4.7806   -1.3982   -2.0683 C   0  0  0  0  0  0  0  0  0  0  0  0
    5.1786   -0.6562   -0.9837 O   0  0  0  0  0  0  0  0  0  0  0  0
    5.2879   -1.5625    0.1367 C   0  0  1  0  0  0  0  0  0  0  0  0
    3.9706   -1.9860    0.8387 C   0  0  0  0  0  0  0  0  0  0  0  0
    3.2285   -1.2288    1.4632 O   0  0  0  0  0  0  0  0  0  0  0  0
    3.7748   -3.5289    0.7018 C   0  0  1  0  0  0  0  0  0  0  0  0
    3.2260   -4.1217    1.8689 O   0  0  0  0  0  0  0  0  0  0  0  0
    2.9639   -3.9546   -0.5842 C   0  0  0  0  0  0  0  0  0  0  0  0
    5.1841   -4.0217    0.3916 C   0  0  2  0  0  0  0  0  0  0  0  0
    6.5056   -6.0960    1.7173 H   0  0  0  0  0  0  0  0  0  0  0  0
    5.3874   -5.3278    2.8589 H   0  0  0  0  0  0  0  0  0  0  0  0
    7.1186   -5.0944    3.0270 H   0  0  0  0  0  0  0  0  0  0  0  0
    8.1375   -3.0490    1.2628 H   0  0  0  0  0  0  0  0  0  0  0  0
    8.0862   -4.6279    0.5470 H   0  0  0  0  0  0  0  0  0  0  0  0
    7.6670   -2.2162   -0.9218 H   0  0  0  0  0  0  0  0  0  0  0  0
    7.3101   -3.8558   -1.4638 H   0  0  0  0  0  0  0  0  0  0  0  0
    1.7200   -3.4250   -3.1601 H   0  0  0  0  0  0  0  0  0  0  0  0
    2.3796   -1.4247   -4.4682 H   0  0  0  0  0  0  0  0  0  0  0  0
    6.0185   -1.2303    0.8774 H   0  0  0  0  0  0  0  0  0  0  0  0
    3.1358   -5.0552    1.7347 H   0  0  0  0  0  0  0  0  0  0  0  0
    1.9291   -3.6237   -0.4861 H   0  0  0  0  0  0  0  0  0  0  0  0
    2.9307   -5.0412   -0.6614 H   0  0  0  0  0  0  0  0  0  0  0  0
    5.1937   -4.9880   -0.1116 H   0  0  0  0  0  0  0  0  0  0  0  0
    6.0714   -3.1967    2.0336 H   0  0  0  0  0  0  0  0  0  0  0  0
  1  2  1  0
  1 21  1  0
  1 22  1  0
  1 23  1  0
  2 20  1  0
  2  3  1  0
  2 35  1  1
  3  4  1  0
  3 24  1  0
  3 25  1  0
  5  4  1  6
  4 26  1  0
  4 27  1  0
  5 14  1  0
  5 20  1  0
  5  6  1  0
  6 12  2  0
  6  7  1  0
  7 19  1  0
  7  8  2  0
  8  9  1  0
  8 28  1  0
  9 10  2  0
  9 29  1  0
 10 11  1  0
 10 12  1  0
 12 13  1  0
 13 14  1  0
 14 15  1  0
 14 30  1  1
 15 16  2  0
 15 17  1  0
 17 18  1  1
 17 19  1  0
 17 20  1  0
 18 31  1  0
 19 32  1  0
 19 33  1  0
 20 34  1  6
M  CHG  2   2   1  11  -1
M  END
>  <i_m_ct_stereo_status>  (394) 
1

>  <s_m_source_file>  (394) 
/var/tmp/pbs.5083858.sched01/tmpfwoas7s2/160e3gkngik.sdf

>  <i_m_source_file_index>  (394) 
3

>  <i_lp_mmshare_version>  (394) 
48012

>  <i_f3d_flags>  (394) 
0

>  <s_epik_input>  (394) 
W0NIMl0xW0NIMl1OKFtDSDNdKVtDQEhdMltDQF0oW09IXSkoW0NIMl0zKUMoPU8pW0NAQEhdNE9jNWMoW09IXSlbY0hdW2NIXWMzYzVbQ0BdMTI0

>  <s_epik_cmdline>  (394) 
J2VwaWtfcHl0aG9uJywgJy1waHQnLCAnMi4wJywgJy1waCcsICc3LjAnLCAnLXRuJywgJzgnLCAnLW1hJywgJzIwMCcsICctaW1hZScsICc8aW5maWxlLm1hZT4nLCAnLW9tYWUnLCAnPG91dGZpbGUubWFlPic=

>  <r_epik_Ionization_Penalty>  (394) 
2.27651

>  <r_epik_Ionization_Penalty_Charging>  (394) 
2.27647

>  <r_epik_Ionization_Penalty_Neutral>  (394) 
3.89076e-05

>  <r_epik_State_Penalty>  (394) 
2.67317

>  <r_epik_Charging_Adjusted_Penalty>  (394) 
4.94964

>  <i_epik_Tot_Q>  (394) 
0

>  <i_epik_Tot_abs_Q>  (394) 
2

>  <s_lp_Force_Field>  (394) 
OPLS3e

>  <r_lp_Energy>  (394) 
93.8097

>  <b_lp_Chiralities_Consistent>  (394) 
1

>  <s_lp_Variant>  (394) 
110:0-3

>  <s_i_glide_gridfile>  (394) 
pfpi4k_grid

>  <i_i_glide_lignum>  (394) 
3

>  <i_i_glide_rotatable_bonds>  (394) 
1

>  <r_i_docking_score>  (394) 
-3.2656

>  <r_i_glide_ligand_efficiency>  (394) 
-0.16328

>  <r_i_glide_ligand_efficiency_sa>  (394) 
-0.44321

>  <r_i_glide_ligand_efficiency_ln>  (394) 
-0.817271

>  <r_i_glide_gscore>  (394) 
-3.2656

>  <r_i_glide_lipo>  (394) 
-0.762953

>  <r_i_glide_hbond>  (394) 
0

>  <r_i_glide_metal>  (394) 
-0

>  <r_i_glide_rewards>  (394) 
-1.54579

>  <r_i_glide_evdw>  (394) 
-19.8341

>  <r_i_glide_ecoul>  (394) 
0.331278

>  <r_i_glide_erotb>  (394) 
0

>  <r_i_glide_esite>  (394) 
-0.0148365

>  <r_i_glide_emodel>  (394) 
-24.2755

>  <r_i_glide_energy>  (394) 
-19.5028

>  <r_i_glide_einternal>  (394) 
0.131686

>  <r_i_glide_intrahb_reward>  (394) 
-0

>  <i_i_glide_confnum>  (394) 
1

>  <i_i_glide_posenum>  (394) 
4

>  <r_i_glide_eff_state_penalty>  (394) 
0

>  <ligand_id>  (394) 
110

>  <original_smiles>  (394) 
CN1CCC23c4c5ccc(O)c4OC2C(=O)C(O)(C5)C13

>  <smiles>  (394) 
[H]OC12C(=O)C3([H])Oc4c([O-])c([H])c([H])c(c4C34C([H])([H])C([H])([H])[N+]([H])(C([H])([H])[H])C14[H])C2([H])[H]

$$$$
111:0:0
     RDKit          3D

 20 21  0  0  1  0  0  0  0  0999 V2000
   -1.6641   -9.3996    2.4842 C   0  0  0  0  0  0  0  0  0  0  0  0
   -0.5047   -9.1367    3.4581 C   0  0  0  0  0  0  0  0  0  0  0  0
    0.6390   -8.5250    2.7880 N   0  0  0  0  0  0  0  0  0  0  0  0
    1.8051   -9.2374    2.6653 N   0  0  0  0  0  0  0  0  0  0  0  0
    2.5651   -8.3992    2.0492 C   0  0  0  0  0  0  0  0  0  0  0  0
    4.2394   -8.2750    1.4076 S   0  0  0  0  0  0  0  0  0  0  0  0
    3.7963   -6.6216    0.8790 C   0  0  0  0  0  0  0  0  0  0  0  0
    4.8149   -5.8015    0.1545 C   0  0  0  0  0  0  0  0  0  0  0  0
    2.5991   -6.2346    1.1509 N   0  0  0  0  0  0  0  0  0  0  0  0
    1.9350   -7.2210    1.7887 N   0  0  0  0  0  0  0  0  0  0  0  0
    0.6988   -7.2875    2.2601 C   0  0  0  0  0  0  0  0  0  0  0  0
   -0.1743   -6.4147    2.2170 O   0  0  0  0  0  0  0  0  0  0  0  0
   -2.5026   -9.8548    3.0075 H   0  0  0  0  0  0  0  0  0  0  0  0
   -1.3614  -10.0812    1.6867 H   0  0  0  0  0  0  0  0  0  0  0  0
   -2.0224   -8.4799    2.0239 H   0  0  0  0  0  0  0  0  0  0  0  0
   -0.8428   -8.4866    4.2695 H   0  0  0  0  0  0  0  0  0  0  0  0
   -0.1941  -10.0753    3.9206 H   0  0  0  0  0  0  0  0  0  0  0  0
    4.4479   -4.7909   -0.0373 H   0  0  0  0  0  0  0  0  0  0  0  0
    5.0310   -6.2549   -0.8123 H   0  0  0  0  0  0  0  0  0  0  0  0
    5.7443   -5.7314    0.7258 H   0  0  0  0  0  0  0  0  0  0  0  0
  1  2  1  0
  1 13  1  0
  1 14  1  0
  1 15  1  0
  2  3  1  0
  2 16  1  0
  2 17  1  0
  3 11  1  0
  3  4  1  0
  4  5  2  0
  5 10  1  0
  5  6  1  0
  6  7  1  0
  7  8  1  0
  7  9  2  0
  8 18  1  0
  8 19  1  0
  8 20  1  0
  9 10  1  0
 10 11  1  0
 11 12  2  0
M  END
>  <i_m_ct_stereo_status>  (395) 
1

>  <s_m_source_file>  (395) 
/var/tmp/pbs.5083858.sched01/tmpfwoas7s2/160e3gkngik.sdf

>  <i_m_source_file_index>  (395) 
4

>  <i_lp_mmshare_version>  (395) 
48012

>  <i_f3d_flags>  (395) 
0

>  <s_epik_input>  (395) 
W0NIM11bQ0gyXW4objEpYyg9TyluKGMxMiluYyhzMilbQ0gzXQ==

>  <s_epik_cmdline>  (395) 
J2VwaWtfcHl0aG9uJywgJy1waHQnLCAnMi4wJywgJy1waCcsICc3LjAnLCAnLXRuJywgJzgnLCAnLW1hJywgJzIwMCcsICctaW1hZScsICc8aW5maWxlLm1hZT4nLCAnLW9tYWUnLCAnPG91dGZpbGUubWFlPic=

>  <r_lp_tautomer_probability>  (395) 
1

>  <r_epik_Ionization_Penalty>  (395) 
3.18703e-06

>  <r_epik_Ionization_Penalty_Charging>  (395) 
7.12235e-08

>  <r_epik_Ionization_Penalty_Neutral>  (395) 
3.11581e-06

>  <r_epik_State_Penalty>  (395) 
-0

>  <r_epik_Charging_Adjusted_Penalty>  (395) 
7.12235e-08

>  <i_epik_Tot_Q>  (395) 
0

>  <i_epik_Tot_abs_Q>  (395) 
0

>  <s_lp_Force_Field>  (395) 
OPLS3e

>  <r_lp_Energy>  (395) 
8.4424

>  <b_lp_Chiralities_Consistent>  (395) 
1

>  <s_lp_Variant>  (395) 
111:0-1

>  <s_i_glide_gridfile>  (395) 
pfpi4k_grid

>  <i_i_glide_lignum>  (395) 
4

>  <i_i_glide_rotatable_bonds>  (395) 
1

>  <r_i_docking_score>  (395) 
-4.46439

>  <r_i_glide_ligand_efficiency>  (395) 
-0.372033

>  <r_i_glide_ligand_efficiency_sa>  (395) 
-0.851742

>  <r_i_glide_ligand_efficiency_ln>  (395) 
-1.28107

>  <r_i_glide_gscore>  (395) 
-4.46439

>  <r_i_glide_lipo>  (395) 
-0.403427

>  <r_i_glide_hbond>  (395) 
-0.197855

>  <r_i_glide_metal>  (395) 
-0

>  <r_i_glide_rewards>  (395) 
-2.15305

>  <r_i_glide_evdw>  (395) 
-18.7284

>  <r_i_glide_ecoul>  (395) 
-4.41438

>  <r_i_glide_erotb>  (395) 
0

>  <r_i_glide_esite>  (395) 
-0.111491

>  <r_i_glide_emodel>  (395) 
-30.6291

>  <r_i_glide_energy>  (395) 
-23.1428

>  <r_i_glide_einternal>  (395) 
0.029949

>  <r_i_glide_intrahb_reward>  (395) 
-0

>  <i_i_glide_confnum>  (395) 
1

>  <i_i_glide_posenum>  (395) 
1

>  <r_i_glide_eff_state_penalty>  (395) 
0

>  <ligand_id>  (395) 
111

>  <original_smiles>  (395) 
CCn1nc2sc(C)nn2c1=O

>  <smiles>  (395) 
[H]C([H])([H])c1nn2c(=O)n(C([H])([H])C([H])([H])[H])nc2s1

$$$$
111:0:1
     RDKit          3D

 20 21  0  0  1  0  0  0  0  0999 V2000
   -2.0942    2.7593    8.8709 C   0  0  0  0  0  0  0  0  0  0  0  0
   -2.8902    2.7847    7.5608 C   0  0  0  0  0  0  0  0  0  0  0  0
   -2.1211    2.2480    6.4455 N   0  0  0  0  0  0  0  0  0  0  0  0
   -1.7971    0.9138    6.4344 N   0  0  0  0  0  0  0  0  0  0  0  0
   -1.1554    0.8112    5.3229 C   0  0  0  0  0  0  0  0  0  0  0  0
   -0.3009   -0.4322    4.3510 S   0  0  0  0  0  0  0  0  0  0  0  0
    0.0151    0.8684    3.1644 C   0  0  0  0  0  0  0  0  0  0  0  0
    0.7722    0.5378    1.9160 C   0  0  0  0  0  0  0  0  0  0  0  0
   -0.4376    2.0355    3.4642 N   0  0  0  0  0  0  0  0  0  0  0  0
   -1.0740    1.9914    4.6549 N   0  0  0  0  0  0  0  0  0  0  0  0
   -1.6707    2.9309    5.3733 C   0  0  0  0  0  0  0  0  0  0  0  0
   -1.7857    4.1321    5.1210 O   0  0  0  0  0  0  0  0  0  0  0  0
   -2.6848    3.1897    9.6795 H   0  0  0  0  0  0  0  0  0  0  0  0
   -1.1740    3.3376    8.7858 H   0  0  0  0  0  0  0  0  0  0  0  0
   -1.8282    1.7440    9.1640 H   0  0  0  0  0  0  0  0  0  0  0  0
   -3.8060    2.2069    7.6663 H   0  0  0  0  0  0  0  0  0  0  0  0
   -3.1928    3.8071    7.3401 H   0  0  0  0  0  0  0  0  0  0  0  0
    0.9749    1.4391    1.3385 H   0  0  0  0  0  0  0  0  0  0  0  0
    0.1991   -0.1366    1.2821 H   0  0  0  0  0  0  0  0  0  0  0  0
    1.7242    0.0604    2.1475 H   0  0  0  0  0  0  0  0  0  0  0  0
  1  2  1  0
  1 13  1  0
  1 14  1  0
  1 15  1  0
  2  3  1  0
  2 16  1  0
  2 17  1  0
  3 11  1  0
  3  4  1  0
  4  5  2  0
  5 10  1  0
  5  6  1  0
  6  7  1  0
  7  8  1  0
  7  9  2  0
  8 18  1  0
  8 19  1  0
  8 20  1  0
  9 10  1  0
 10 11  1  0
 11 12  2  0
M  END
>  <i_m_ct_stereo_status>  (396) 
1

>  <s_m_source_file>  (396) 
/var/tmp/pbs.5083858.sched01/tmpfwoas7s2/160e3gkngik.sdf

>  <i_m_source_file_index>  (396) 
4

>  <i_lp_mmshare_version>  (396) 
48012

>  <i_f3d_flags>  (396) 
0

>  <s_epik_input>  (396) 
W0NIM11bQ0gyXW4objEpYyg9TyluKGMxMiluYyhzMilbQ0gzXQ==

>  <s_epik_cmdline>  (396) 
J2VwaWtfcHl0aG9uJywgJy1waHQnLCAnMi4wJywgJy1waCcsICc3LjAnLCAnLXRuJywgJzgnLCAnLW1hJywgJzIwMCcsICctaW1hZScsICc8aW5maWxlLm1hZT4nLCAnLW9tYWUnLCAnPG91dGZpbGUubWFlPic=

>  <r_lp_tautomer_probability>  (396) 
1

>  <r_epik_Ionization_Penalty>  (396) 
3.18703e-06

>  <r_epik_Ionization_Penalty_Charging>  (396) 
7.12235e-08

>  <r_epik_Ionization_Penalty_Neutral>  (396) 
3.11581e-06

>  <r_epik_State_Penalty>  (396) 
-0

>  <r_epik_Charging_Adjusted_Penalty>  (396) 
7.12235e-08

>  <i_epik_Tot_Q>  (396) 
0

>  <i_epik_Tot_abs_Q>  (396) 
0

>  <s_lp_Force_Field>  (396) 
OPLS3e

>  <r_lp_Energy>  (396) 
8.4424

>  <b_lp_Chiralities_Consistent>  (396) 
1

>  <s_lp_Variant>  (396) 
111:0-1

>  <s_i_glide_gridfile>  (396) 
pfpi4k_grid

>  <i_i_glide_lignum>  (396) 
4

>  <i_i_glide_rotatable_bonds>  (396) 
1

>  <r_i_docking_score>  (396) 
-3.89597

>  <r_i_glide_ligand_efficiency>  (396) 
-0.324665

>  <r_i_glide_ligand_efficiency_sa>  (396) 
-0.743296

>  <r_i_glide_ligand_efficiency_ln>  (396) 
-1.11796

>  <r_i_glide_gscore>  (396) 
-3.89597

>  <r_i_glide_lipo>  (396) 
-0.180729

>  <r_i_glide_hbond>  (396) 
-0.0886837

>  <r_i_glide_metal>  (396) 
-0

>  <r_i_glide_rewards>  (396) 
-2.21214

>  <r_i_glide_evdw>  (396) 
-16.7682

>  <r_i_glide_ecoul>  (396) 
-3.55358

>  <r_i_glide_erotb>  (396) 
0

>  <r_i_glide_esite>  (396) 
-0.0429682

>  <r_i_glide_emodel>  (396) 
-26.6164

>  <r_i_glide_energy>  (396) 
-20.3218

>  <r_i_glide_einternal>  (396) 
0.438659

>  <r_i_glide_intrahb_reward>  (396) 
-0

>  <i_i_glide_confnum>  (396) 
1

>  <i_i_glide_posenum>  (396) 
5

>  <r_i_glide_eff_state_penalty>  (396) 
0

>  <ligand_id>  (396) 
111

>  <original_smiles>  (396) 
CCn1nc2sc(C)nn2c1=O

>  <smiles>  (396) 
[H]C([H])([H])c1nn2c(=O)n(C([H])([H])C([H])([H])[H])nc2s1

$$$$
111:0:2
     RDKit          3D

 20 21  0  0  1  0  0  0  0  0999 V2000
   -1.0876    2.6014    9.6601 C   0  0  0  0  0  0  0  0  0  0  0  0
   -2.2138    2.7476    8.6299 C   0  0  0  0  0  0  0  0  0  0  0  0
   -1.7787    2.3463    7.2960 N   0  0  0  0  0  0  0  0  0  0  0  0
   -1.8952    1.0330    6.9173 N   0  0  0  0  0  0  0  0  0  0  0  0
   -1.4336    1.0648    5.7175 C   0  0  0  0  0  0  0  0  0  0  0  0
   -1.1274   -0.0518    4.3524 S   0  0  0  0  0  0  0  0  0  0  0  0
   -0.5477    1.3806    3.4526 C   0  0  0  0  0  0  0  0  0  0  0  0
   -0.0738    1.2072    2.0440 C   0  0  0  0  0  0  0  0  0  0  0  0
   -0.5704    2.5004    4.0883 N   0  0  0  0  0  0  0  0  0  0  0  0
   -1.0560    2.3108    5.3347 N   0  0  0  0  0  0  0  0  0  0  0  0
   -1.2431    3.1423    6.3493 C   0  0  0  0  0  0  0  0  0  0  0  0
   -0.9908    4.3463    6.4091 O   0  0  0  0  0  0  0  0  0  0  0  0
   -1.4310    2.9283   10.6418 H   0  0  0  0  0  0  0  0  0  0  0  0
   -0.2230    3.2091    9.3914 H   0  0  0  0  0  0  0  0  0  0  0  0
   -0.7593    1.5659    9.7536 H   0  0  0  0  0  0  0  0  0  0  0  0
   -3.0718    2.1459    8.9299 H   0  0  0  0  0  0  0  0  0  0  0  0
   -2.5612    3.7815    8.6044 H   0  0  0  0  0  0  0  0  0  0  0  0
    0.3471    2.1376    1.6641 H   0  0  0  0  0  0  0  0  0  0  0  0
   -0.8989    0.9272    1.3904 H   0  0  0  0  0  0  0  0  0  0  0  0
    0.6958    0.4377    1.9776 H   0  0  0  0  0  0  0  0  0  0  0  0
  1  2  1  0
  1 13  1  0
  1 14  1  0
  1 15  1  0
  2  3  1  0
  2 16  1  0
  2 17  1  0
  3 11  1  0
  3  4  1  0
  4  5  2  0
  5 10  1  0
  5  6  1  0
  6  7  1  0
  7  8  1  0
  7  9  2  0
  8 18  1  0
  8 19  1  0
  8 20  1  0
  9 10  1  0
 10 11  1  0
 11 12  2  0
M  END
>  <i_m_ct_stereo_status>  (397) 
1

>  <s_m_source_file>  (397) 
/var/tmp/pbs.5083858.sched01/tmpfwoas7s2/160e3gkngik.sdf

>  <i_m_source_file_index>  (397) 
4

>  <i_lp_mmshare_version>  (397) 
48012

>  <i_f3d_flags>  (397) 
0

>  <s_epik_input>  (397) 
W0NIM11bQ0gyXW4objEpYyg9TyluKGMxMiluYyhzMilbQ0gzXQ==

>  <s_epik_cmdline>  (397) 
J2VwaWtfcHl0aG9uJywgJy1waHQnLCAnMi4wJywgJy1waCcsICc3LjAnLCAnLXRuJywgJzgnLCAnLW1hJywgJzIwMCcsICctaW1hZScsICc8aW5maWxlLm1hZT4nLCAnLW9tYWUnLCAnPG91dGZpbGUubWFlPic=

>  <r_lp_tautomer_probability>  (397) 
1

>  <r_epik_Ionization_Penalty>  (397) 
3.18703e-06

>  <r_epik_Ionization_Penalty_Charging>  (397) 
7.12235e-08

>  <r_epik_Ionization_Penalty_Neutral>  (397) 
3.11581e-06

>  <r_epik_State_Penalty>  (397) 
-0

>  <r_epik_Charging_Adjusted_Penalty>  (397) 
7.12235e-08

>  <i_epik_Tot_Q>  (397) 
0

>  <i_epik_Tot_abs_Q>  (397) 
0

>  <s_lp_Force_Field>  (397) 
OPLS3e

>  <r_lp_Energy>  (397) 
8.4424

>  <b_lp_Chiralities_Consistent>  (397) 
1

>  <s_lp_Variant>  (397) 
111:0-1

>  <s_i_glide_gridfile>  (397) 
pfpi4k_grid

>  <i_i_glide_lignum>  (397) 
4

>  <i_i_glide_rotatable_bonds>  (397) 
1

>  <r_i_docking_score>  (397) 
-3.70065

>  <r_i_glide_ligand_efficiency>  (397) 
-0.308387

>  <r_i_glide_ligand_efficiency_sa>  (397) 
-0.70603

>  <r_i_glide_ligand_efficiency_ln>  (397) 
-1.06191

>  <r_i_glide_gscore>  (397) 
-3.70065

>  <r_i_glide_lipo>  (397) 
0

>  <r_i_glide_hbond>  (397) 
-0.16

>  <r_i_glide_metal>  (397) 
-0

>  <r_i_glide_rewards>  (397) 
-2.18535

>  <r_i_glide_evdw>  (397) 
-15.3538

>  <r_i_glide_ecoul>  (397) 
-3.61236

>  <r_i_glide_erotb>  (397) 
0

>  <r_i_glide_esite>  (397) 
-0.0457491

>  <r_i_glide_emodel>  (397) 
-25.1313

>  <r_i_glide_energy>  (397) 
-18.9662

>  <r_i_glide_einternal>  (397) 
0.080356

>  <r_i_glide_intrahb_reward>  (397) 
-0

>  <i_i_glide_confnum>  (397) 
1

>  <i_i_glide_posenum>  (397) 
15

>  <r_i_glide_eff_state_penalty>  (397) 
0

>  <ligand_id>  (397) 
111

>  <original_smiles>  (397) 
CCn1nc2sc(C)nn2c1=O

>  <smiles>  (397) 
[H]C([H])([H])c1nn2c(=O)n(C([H])([H])C([H])([H])[H])nc2s1

$$$$
112:0:0
     RDKit          3D

 50 53  0  0  1  0  0  0  0  0999 V2000
   -0.9281   -7.5878    1.8174 C   0  0  0  0  0  0  0  0  0  0  0  0
    0.4120   -7.7821    2.2338 O   0  0  0  0  0  0  0  0  0  0  0  0
    0.6310   -9.0117    2.9027 C   0  0  2  0  0  0  0  0  0  0  0  0
   -0.0739   -9.0283    4.2848 C   0  0  0  0  0  0  0  0  0  0  0  0
    0.2704  -10.1971    5.0160 O   0  0  0  0  0  0  0  0  0  0  0  0
    1.6534  -10.3604    5.2815 C   0  0  0  0  0  0  0  0  0  0  0  0
    2.3866  -10.4123    3.9468 C   0  0  2  0  0  0  0  0  0  0  0  0
    3.9061  -10.4986    3.9622 C   0  0  0  0  0  0  0  0  0  0  0  0
    4.3106   -9.9527    2.6426 N   0  0  2  0  0  0  0  0  0  0  0  0
    5.5684   -9.1420    2.6967 C   0  0  2  0  0  0  0  0  0  0  0  0
    5.3602   -7.7186    3.2863 C   0  0  0  0  0  0  0  0  0  0  0  0
    6.6448   -6.8850    3.2585 C   0  0  0  0  0  0  0  0  0  0  0  0
    7.1926   -6.8522    1.9053 N   0  0  0  0  0  0  0  0  0  0  0  0
    7.5089   -5.6565    1.2684 C   0  0  0  0  0  0  0  0  0  0  0  0
    6.6832   -4.6289    1.4929 N   0  0  0  0  0  0  0  0  0  0  0  0
    6.9854   -3.4721    0.8844 C   0  0  0  0  0  0  0  0  0  0  0  0
    8.1288   -3.3777    0.0566 C   0  0  0  0  0  0  0  0  0  0  0  0
    8.9185   -4.4625   -0.1233 N   0  0  0  0  0  0  0  0  0  0  0  0
    8.6052   -5.6181    0.4806 N   0  0  0  0  0  0  0  0  0  0  0  0
    7.5055   -8.1688    1.3608 C   0  0  0  0  0  0  0  0  0  0  0  0
    6.2416   -9.0736    1.3094 C   0  0  1  0  0  0  0  0  0  0  0  0
    6.6124  -10.3945    0.9125 O   0  0  0  0  0  0  0  0  0  0  0  0
    3.1210   -9.3098    2.0145 C   0  0  0  0  0  0  0  0  0  0  0  0
    2.1362   -9.1372    3.1714 C   0  0  1  0  0  0  0  0  0  0  0  0
   -0.9397   -6.6517    1.2688 H   0  0  0  0  0  0  0  0  0  0  0  0
   -1.6331   -7.4829    2.6419 H   0  0  0  0  0  0  0  0  0  0  0  0
   -1.2938   -8.3847    1.1703 H   0  0  0  0  0  0  0  0  0  0  0  0
    0.2954   -9.8401    2.2727 H   0  0  0  0  0  0  0  0  0  0  0  0
    0.2010   -8.1430    4.8614 H   0  0  0  0  0  0  0  0  0  0  0  0
   -1.1571   -9.0317    4.1886 H   0  0  0  0  0  0  0  0  0  0  0  0
    2.0038   -9.5654    5.9456 H   0  0  0  0  0  0  0  0  0  0  0  0
    1.7987  -11.3237    5.7546 H   0  0  0  0  0  0  0  0  0  0  0  0
    2.0030  -11.2594    3.3699 H   0  0  0  0  0  0  0  0  0  0  0  0
    4.3029   -9.9079    4.7917 H   0  0  0  0  0  0  0  0  0  0  0  0
    4.2549  -11.5241    4.1047 H   0  0  0  0  0  0  0  0  0  0  0  0
    6.2729   -9.6629    3.3447 H   0  0  0  0  0  0  0  0  0  0  0  0
    4.6378   -7.1308    2.7173 H   0  0  0  0  0  0  0  0  0  0  0  0
    4.9891   -7.7661    4.3135 H   0  0  0  0  0  0  0  0  0  0  0  0
    6.4081   -5.8824    3.6190 H   0  0  0  0  0  0  0  0  0  0  0  0
    7.3890   -7.2966    3.9445 H   0  0  0  0  0  0  0  0  0  0  0  0
    6.3386   -2.6239    1.0595 H   0  0  0  0  0  0  0  0  0  0  0  0
    8.4133   -2.4600   -0.4248 H   0  0  0  0  0  0  0  0  0  0  0  0
    7.9785   -8.0931    0.3788 H   0  0  0  0  0  0  0  0  0  0  0  0
    8.2438   -8.6065    2.0311 H   0  0  0  0  0  0  0  0  0  0  0  0
    5.5486   -8.6536    0.5717 H   0  0  0  0  0  0  0  0  0  0  0  0
    5.8470  -10.9219    0.7238 H   0  0  0  0  0  0  0  0  0  0  0  0
    3.3164   -8.3682    1.5041 H   0  0  0  0  0  0  0  0  0  0  0  0
    2.7134   -9.9945    1.2667 H   0  0  0  0  0  0  0  0  0  0  0  0
    2.4528   -8.2858    3.7828 H   0  0  0  0  0  0  0  0  0  0  0  0
    4.4942  -10.7701    2.0650 H   0  0  0  0  0  0  0  0  0  0  0  0
  1  2  1  0
  1 25  1  0
  1 26  1  0
  1 27  1  0
  2  3  1  0
  3 24  1  0
  3  4  1  0
  3 28  1  6
  4  5  1  0
  4 29  1  0
  4 30  1  0
  5  6  1  0
  6  7  1  0
  6 31  1  0
  6 32  1  0
  7 24  1  0
  7  8  1  0
  7 33  1  6
  8  9  1  0
  8 34  1  0
  8 35  1  0
  9 10  1  0
  9 23  1  0
  9 50  1  6
 10 21  1  0
 10 11  1  0
 10 36  1  1
 11 12  1  0
 11 37  1  0
 11 38  1  0
 12 13  1  0
 12 39  1  0
 12 40  1  0
 13 14  1  0
 13 20  1  0
 14 19  1  0
 14 15  2  0
 15 16  1  0
 16 17  2  0
 16 41  1  0
 17 18  1  0
 17 42  1  0
 18 19  2  0
 20 21  1  0
 20 43  1  0
 20 44  1  0
 21 22  1  0
 21 45  1  6
 22 46  1  0
 23 24  1  0
 23 47  1  0
 23 48  1  0
 24 49  1  1
M  CHG  1   9   1
M  END
>  <i_m_ct_stereo_status>  (398) 
1

>  <s_m_source_file>  (398) 
/var/tmp/pbs.5083858.sched01/tmpfwoas7s2/160e3gkngik.sdf

>  <i_m_source_file_index>  (398) 
5

>  <i_lp_mmshare_version>  (398) 
48012

>  <i_f3d_flags>  (398) 
0

>  <s_epik_input>  (398) 
W0NIMl0xT1tDSDJdW0NAQEhdKE9bQ0gzXSlbQ0BASF0oW0NASF0xMilbQ0gyXU4oW0NIMl0yKVtDQEBIXTNbQ0gyXVtDSDJdTihbQ0gyXVtDQEhdM1tPSF0pYzRuW2NIXVtjSF1ubjQ=

>  <s_epik_cmdline>  (398) 
J2VwaWtfcHl0aG9uJywgJy1waHQnLCAnMi4wJywgJy1waCcsICc3LjAnLCAnLXRuJywgJzgnLCAnLW1hJywgJzIwMCcsICctaW1hZScsICc8aW5maWxlLm1hZT4nLCAnLW9tYWUnLCAnPG91dGZpbGUubWFlPic=

>  <r_lp_tautomer_probability>  (398) 
1

>  <r_epik_Ionization_Penalty>  (398) 
0.0038757

>  <r_epik_Ionization_Penalty_Charging>  (398) 
0.00252061

>  <r_epik_Ionization_Penalty_Neutral>  (398) 
0.00135508

>  <r_epik_State_Penalty>  (398) 
-0

>  <r_epik_Charging_Adjusted_Penalty>  (398) 
0.00252061

>  <i_epik_Tot_Q>  (398) 
1

>  <i_epik_Tot_abs_Q>  (398) 
1

>  <s_lp_Force_Field>  (398) 
OPLS3e

>  <r_lp_Energy>  (398) 
50.7331

>  <b_lp_Chiralities_Consistent>  (398) 
1

>  <s_lp_Variant>  (398) 
112:0-1

>  <s_i_glide_gridfile>  (398) 
pfpi4k_grid

>  <i_i_glide_lignum>  (398) 
5

>  <i_i_glide_rotatable_bonds>  (398) 
4

>  <r_i_docking_score>  (398) 
-3.84451

>  <r_i_glide_ligand_efficiency>  (398) 
-0.160188

>  <r_i_glide_ligand_efficiency_sa>  (398) 
-0.462062

>  <r_i_glide_ligand_efficiency_ln>  (398) 
-0.920167

>  <r_i_glide_gscore>  (398) 
-3.84451

>  <r_i_glide_lipo>  (398) 
-0.445895

>  <r_i_glide_hbond>  (398) 
-0.296041

>  <r_i_glide_metal>  (398) 
-0

>  <r_i_glide_rewards>  (398) 
-1.272

>  <r_i_glide_evdw>  (398) 
-21.898

>  <r_i_glide_ecoul>  (398) 
-6.27282

>  <r_i_glide_erotb>  (398) 
0.33376

>  <r_i_glide_esite>  (398) 
-0.12851

>  <r_i_glide_emodel>  (398) 
-35.711

>  <r_i_glide_energy>  (398) 
-28.1708

>  <r_i_glide_einternal>  (398) 
2.48756

>  <r_i_glide_intrahb_reward>  (398) 
-0

>  <i_i_glide_confnum>  (398) 
4

>  <i_i_glide_posenum>  (398) 
2

>  <r_i_glide_eff_state_penalty>  (398) 
0

>  <ligand_id>  (398) 
112

>  <original_smiles>  (398) 
COC1COCC2CN(C3CCN(c4nccnn4)CC3O)CC21

>  <smiles>  (398) 
[H]OC1([H])C([H])([H])N(c2nnc([H])c([H])n2)C([H])([H])C([H])([H])C1([H])[N+]1([H])C([H])([H])C2([H])C([H])([H])OC([H])([H])C([H])(OC([H])([H])[H])C2([H])C1([H])[H]

$$$$
112:0:1
     RDKit          3D

 50 53  0  0  1  0  0  0  0  0999 V2000
    0.1182   -7.2478    0.9082 C   0  0  0  0  0  0  0  0  0  0  0  0
    0.1853   -7.0564    2.3131 O   0  0  0  0  0  0  0  0  0  0  0  0
    0.3810   -8.2768    3.0270 C   0  0  2  0  0  0  0  0  0  0  0  0
   -0.3307   -8.1488    4.3930 C   0  0  0  0  0  0  0  0  0  0  0  0
   -0.1181   -9.2986    5.2104 O   0  0  0  0  0  0  0  0  0  0  0  0
    1.2428   -9.6063    5.5048 C   0  0  0  0  0  0  0  0  0  0  0  0
    1.9859   -9.7879    4.1756 C   0  0  2  0  0  0  0  0  0  0  0  0
    3.4962  -10.0071    4.2018 C   0  0  0  0  0  0  0  0  0  0  0  0
    3.9563   -9.5685    2.8640 N   0  0  2  0  0  0  0  0  0  0  0  0
    5.2834   -8.8673    2.8748 C   0  0  2  0  0  0  0  0  0  0  0  0
    5.2026   -7.4043    3.4006 C   0  0  0  0  0  0  0  0  0  0  0  0
    6.5555   -6.6937    3.3388 C   0  0  0  0  0  0  0  0  0  0  0  0
    7.1095   -6.7710    1.9882 N   0  0  0  0  0  0  0  0  0  0  0  0
    7.5207   -5.6352    1.2937 C   0  0  0  0  0  0  0  0  0  0  0  0
    6.8084   -4.5214    1.4996 N   0  0  0  0  0  0  0  0  0  0  0  0
    7.2171   -3.4231    0.8494 C   0  0  0  0  0  0  0  0  0  0  0  0
    8.3378   -3.4705   -0.0079 C   0  0  0  0  0  0  0  0  0  0  0  0
    9.0012   -4.6445   -0.1753 N   0  0  0  0  0  0  0  0  0  0  0  0
    8.5905   -5.7358    0.4775 N   0  0  0  0  0  0  0  0  0  0  0  0
    7.3041   -8.1341    1.4926 C   0  0  0  0  0  0  0  0  0  0  0  0
    5.9599   -8.9184    1.4837 C   0  0  1  0  0  0  0  0  0  0  0  0
    6.2397  -10.2746    1.1366 O   0  0  0  0  0  0  0  0  0  0  0  0
    2.8367   -8.8576    2.1978 C   0  0  0  0  0  0  0  0  0  0  0  0
    1.8640   -8.5314    3.3300 C   0  0  1  0  0  0  0  0  0  0  0  0
    0.0224   -6.2892    0.4000 H   0  0  0  0  0  0  0  0  0  0  0  0
   -0.7464   -7.8561    0.6419 H   0  0  0  0  0  0  0  0  0  0  0  0
    1.0144   -7.7354    0.5277 H   0  0  0  0  0  0  0  0  0  0  0  0
   -0.0483   -9.1218    2.4800 H   0  0  0  0  0  0  0  0  0  0  0  0
    0.0251   -7.2688    4.9313 H   0  0  0  0  0  0  0  0  0  0  0  0
   -1.4024   -8.0247    4.2431 H   0  0  0  0  0  0  0  0  0  0  0  0
    1.6746   -8.8140    6.1205 H   0  0  0  0  0  0  0  0  0  0  0  0
    1.2725  -10.5346    6.0767 H   0  0  0  0  0  0  0  0  0  0  0  0
    1.5333  -10.6218    3.6320 H   0  0  0  0  0  0  0  0  0  0  0  0
    3.9449   -9.4186    5.0037 H   0  0  0  0  0  0  0  0  0  0  0  0
    3.7535  -11.0502    4.3957 H   0  0  0  0  0  0  0  0  0  0  0  0
    5.9401   -9.4166    3.5488 H   0  0  0  0  0  0  0  0  0  0  0  0
    4.5369   -6.7729    2.8096 H   0  0  0  0  0  0  0  0  0  0  0  0
    4.8267   -7.3696    4.4277 H   0  0  0  0  0  0  0  0  0  0  0  0
    6.4063   -5.6606    3.6584 H   0  0  0  0  0  0  0  0  0  0  0  0
    7.2562   -7.1389    4.0472 H   0  0  0  0  0  0  0  0  0  0  0  0
    6.6717   -2.5039    1.0199 H   0  0  0  0  0  0  0  0  0  0  0  0
    8.7059   -2.6058   -0.5296 H   0  0  0  0  0  0  0  0  0  0  0  0
    7.7538   -8.1303    0.4952 H   0  0  0  0  0  0  0  0  0  0  0  0
    8.0304   -8.6240    2.1439 H   0  0  0  0  0  0  0  0  0  0  0  0
    5.3114   -8.4629    0.7295 H   0  0  0  0  0  0  0  0  0  0  0  0
    5.4550  -10.7605    0.8856 H   0  0  0  0  0  0  0  0  0  0  0  0
    3.1156   -7.9659    1.6412 H   0  0  0  0  0  0  0  0  0  0  0  0
    2.3729   -9.5360    1.4784 H   0  0  0  0  0  0  0  0  0  0  0  0
    2.2558   -7.6845    3.9008 H   0  0  0  0  0  0  0  0  0  0  0  0
    4.0902  -10.4256    2.3359 H   0  0  0  0  0  0  0  0  0  0  0  0
  1  2  1  0
  1 25  1  0
  1 26  1  0
  1 27  1  0
  2  3  1  0
  3 24  1  0
  3  4  1  0
  3 28  1  6
  4  5  1  0
  4 29  1  0
  4 30  1  0
  5  6  1  0
  6  7  1  0
  6 31  1  0
  6 32  1  0
  7 24  1  0
  7  8  1  0
  7 33  1  6
  8  9  1  0
  8 34  1  0
  8 35  1  0
  9 10  1  0
  9 23  1  0
  9 50  1  6
 10 21  1  0
 10 11  1  0
 10 36  1  1
 11 12  1  0
 11 37  1  0
 11 38  1  0
 12 13  1  0
 12 39  1  0
 12 40  1  0
 13 14  1  0
 13 20  1  0
 14 19  1  0
 14 15  2  0
 15 16  1  0
 16 17  2  0
 16 41  1  0
 17 18  1  0
 17 42  1  0
 18 19  2  0
 20 21  1  0
 20 43  1  0
 20 44  1  0
 21 22  1  0
 21 45  1  6
 22 46  1  0
 23 24  1  0
 23 47  1  0
 23 48  1  0
 24 49  1  1
M  CHG  1   9   1
M  END
>  <i_m_ct_stereo_status>  (399) 
1

>  <s_m_source_file>  (399) 
/var/tmp/pbs.5083858.sched01/tmpfwoas7s2/160e3gkngik.sdf

>  <i_m_source_file_index>  (399) 
5

>  <i_lp_mmshare_version>  (399) 
48012

>  <i_f3d_flags>  (399) 
0

>  <s_epik_input>  (399) 
W0NIMl0xT1tDSDJdW0NAQEhdKE9bQ0gzXSlbQ0BASF0oW0NASF0xMilbQ0gyXU4oW0NIMl0yKVtDQEBIXTNbQ0gyXVtDSDJdTihbQ0gyXVtDQEhdM1tPSF0pYzRuW2NIXVtjSF1ubjQ=

>  <s_epik_cmdline>  (399) 
J2VwaWtfcHl0aG9uJywgJy1waHQnLCAnMi4wJywgJy1waCcsICc3LjAnLCAnLXRuJywgJzgnLCAnLW1hJywgJzIwMCcsICctaW1hZScsICc8aW5maWxlLm1hZT4nLCAnLW9tYWUnLCAnPG91dGZpbGUubWFlPic=

>  <r_lp_tautomer_probability>  (399) 
1

>  <r_epik_Ionization_Penalty>  (399) 
0.0038757

>  <r_epik_Ionization_Penalty_Charging>  (399) 
0.00252061

>  <r_epik_Ionization_Penalty_Neutral>  (399) 
0.00135508

>  <r_epik_State_Penalty>  (399) 
-0

>  <r_epik_Charging_Adjusted_Penalty>  (399) 
0.00252061

>  <i_epik_Tot_Q>  (399) 
1

>  <i_epik_Tot_abs_Q>  (399) 
1

>  <s_lp_Force_Field>  (399) 
OPLS3e

>  <r_lp_Energy>  (399) 
50.7331

>  <b_lp_Chiralities_Consistent>  (399) 
1

>  <s_lp_Variant>  (399) 
112:0-1

>  <s_i_glide_gridfile>  (399) 
pfpi4k_grid

>  <i_i_glide_lignum>  (399) 
5

>  <i_i_glide_rotatable_bonds>  (399) 
4

>  <r_i_docking_score>  (399) 
-3.80247

>  <r_i_glide_ligand_efficiency>  (399) 
-0.158436

>  <r_i_glide_ligand_efficiency_sa>  (399) 
-0.457009

>  <r_i_glide_ligand_efficiency_ln>  (399) 
-0.910106

>  <r_i_glide_gscore>  (399) 
-3.80247

>  <r_i_glide_lipo>  (399) 
-0.438065

>  <r_i_glide_hbond>  (399) 
-0.16

>  <r_i_glide_metal>  (399) 
-0

>  <r_i_glide_rewards>  (399) 
-1.28948

>  <r_i_glide_evdw>  (399) 
-22.7868

>  <r_i_glide_ecoul>  (399) 
-6.62091

>  <r_i_glide_erotb>  (399) 
0.33376

>  <r_i_glide_esite>  (399) 
-0.116203

>  <r_i_glide_emodel>  (399) 
-36.7668

>  <r_i_glide_energy>  (399) 
-29.4077

>  <r_i_glide_einternal>  (399) 
2.68866

>  <r_i_glide_intrahb_reward>  (399) 
-0

>  <i_i_glide_confnum>  (399) 
4

>  <i_i_glide_posenum>  (399) 
29

>  <r_i_glide_eff_state_penalty>  (399) 
0

>  <ligand_id>  (399) 
112

>  <original_smiles>  (399) 
COC1COCC2CN(C3CCN(c4nccnn4)CC3O)CC21

>  <smiles>  (399) 
[H]OC1([H])C([H])([H])N(c2nnc([H])c([H])n2)C([H])([H])C([H])([H])C1([H])[N+]1([H])C([H])([H])C2([H])C([H])([H])OC([H])([H])C([H])(OC([H])([H])[H])C2([H])C1([H])[H]

$$$$
112:0:2
     RDKit          3D

 50 53  0  0  1  0  0  0  0  0999 V2000
    3.8059    0.0501    1.6253 C   0  0  0  0  0  0  0  0  0  0  0  0
    3.8954   -1.3492    1.3802 O   0  0  0  0  0  0  0  0  0  0  0  0
    5.1698   -1.7771    0.9167 C   0  0  2  0  0  0  0  0  0  0  0  0
    5.4153   -1.3556   -0.5575 C   0  0  0  0  0  0  0  0  0  0  0  0
    6.6584   -1.8653   -1.0469 O   0  0  0  0  0  0  0  0  0  0  0  0
    6.7600   -3.2921   -1.0290 C   0  0  0  0  0  0  0  0  0  0  0  0
    6.5731   -3.7703    0.4214 C   0  0  2  0  0  0  0  0  0  0  0  0
    6.5472   -5.2716    0.7184 C   0  0  0  0  0  0  0  0  0  0  0  0
    5.7824   -5.3881    1.9972 N   0  0  2  0  0  0  0  0  0  0  0  0
    4.8960   -6.5857    2.0717 C   0  0  2  0  0  0  0  0  0  0  0  0
    3.6680   -6.4848    1.1322 C   0  0  0  0  0  0  0  0  0  0  0  0
    2.7364   -7.6867    1.2851 C   0  0  0  0  0  0  0  0  0  0  0  0
    2.3509   -7.8680    2.6795 N   0  0  0  0  0  0  0  0  0  0  0  0
    1.0123   -7.8949    3.0759 C   0  0  0  0  0  0  0  0  0  0  0  0
    0.7226   -8.5013    4.2295 N   0  0  0  0  0  0  0  0  0  0  0  0
   -0.5745   -8.5126    4.5944 C   0  0  0  0  0  0  0  0  0  0  0  0
   -1.5420   -7.8817    3.7839 C   0  0  0  0  0  0  0  0  0  0  0  0
   -1.1746   -7.2769    2.6339 N   0  0  0  0  0  0  0  0  0  0  0  0
    0.1172   -7.2740    2.2788 N   0  0  0  0  0  0  0  0  0  0  0  0
    3.4715   -8.0621    3.6048 C   0  0  0  0  0  0  0  0  0  0  0  0
    4.4443   -6.8634    3.5254 C   0  0  1  0  0  0  0  0  0  0  0  0
    5.5930   -7.0967    4.3216 O   0  0  0  0  0  0  0  0  0  0  0  0
    5.1421   -4.0642    2.2714 C   0  0  0  0  0  0  0  0  0  0  0  0
    5.2211   -3.3130    0.9421 C   0  0  1  0  0  0  0  0  0  0  0  0
    2.8057    0.2977    1.9771 H   0  0  0  0  0  0  0  0  0  0  0  0
    3.9800    0.6462    0.7301 H   0  0  0  0  0  0  0  0  0  0  0  0
    4.5165    0.3638    2.3905 H   0  0  0  0  0  0  0  0  0  0  0  0
    5.9496   -1.3774    1.5690 H   0  0  0  0  0  0  0  0  0  0  0  0
    4.6035   -1.7114   -1.1947 H   0  0  0  0  0  0  0  0  0  0  0  0
    5.4460   -0.2741   -0.6595 H   0  0  0  0  0  0  0  0  0  0  0  0
    6.0178   -3.7306   -1.7015 H   0  0  0  0  0  0  0  0  0  0  0  0
    7.7489   -3.5753   -1.3916 H   0  0  0  0  0  0  0  0  0  0  0  0
    7.3550   -3.3204    1.0400 H   0  0  0  0  0  0  0  0  0  0  0  0
    6.0515   -5.7974   -0.0992 H   0  0  0  0  0  0  0  0  0  0  0  0
    7.5500   -5.6937    0.8134 H   0  0  0  0  0  0  0  0  0  0  0  0
    5.4885   -7.4468    1.7587 H   0  0  0  0  0  0  0  0  0  0  0  0
    3.0774   -5.5931    1.3475 H   0  0  0  0  0  0  0  0  0  0  0  0
    3.9635   -6.4191    0.0838 H   0  0  0  0  0  0  0  0  0  0  0  0
    1.8625   -7.5026    0.6614 H   0  0  0  0  0  0  0  0  0  0  0  0
    3.2201   -8.5970    0.9197 H   0  0  0  0  0  0  0  0  0  0  0  0
   -0.8371   -8.9974    5.5238 H   0  0  0  0  0  0  0  0  0  0  0  0
   -2.5844   -7.8380    4.0611 H   0  0  0  0  0  0  0  0  0  0  0  0
    3.1270   -8.1714    4.6340 H   0  0  0  0  0  0  0  0  0  0  0  0
    3.9743   -8.9955    3.3456 H   0  0  0  0  0  0  0  0  0  0  0  0
    3.9210   -5.9981    3.9357 H   0  0  0  0  0  0  0  0  0  0  0  0
    6.0149   -7.8989    4.0437 H   0  0  0  0  0  0  0  0  0  0  0  0
    4.1169   -4.1263    2.6347 H   0  0  0  0  0  0  0  0  0  0  0  0
    5.7254   -3.5495    3.0385 H   0  0  0  0  0  0  0  0  0  0  0  0
    4.4312   -3.6978    0.2879 H   0  0  0  0  0  0  0  0  0  0  0  0
    6.4605   -5.5182    2.7374 H   0  0  0  0  0  0  0  0  0  0  0  0
  1  2  1  0
  1 25  1  0
  1 26  1  0
  1 27  1  0
  2  3  1  0
  3 24  1  0
  3  4  1  0
  3 28  1  1
  4  5  1  0
  4 29  1  0
  4 30  1  0
  5  6  1  0
  6  7  1  0
  6 31  1  0
  6 32  1  0
  7 24  1  0
  7  8  1  0
  7 33  1  1
  8  9  1  0
  8 34  1  0
  8 35  1  0
  9 10  1  0
  9 23  1  0
  9 50  1  1
 10 21  1  0
 10 11  1  0
 10 36  1  6
 11 12  1  0
 11 37  1  0
 11 38  1  0
 12 13  1  0
 12 39  1  0
 12 40  1  0
 13 14  1  0
 13 20  1  0
 14 19  1  0
 14 15  2  0
 15 16  1  0
 16 17  2  0
 16 41  1  0
 17 18  1  0
 17 42  1  0
 18 19  2  0
 20 21  1  0
 20 43  1  0
 20 44  1  0
 21 22  1  0
 21 45  1  1
 22 46  1  0
 23 24  1  0
 23 47  1  0
 23 48  1  0
 24 49  1  6
M  CHG  1   9   1
M  END
>  <i_m_ct_stereo_status>  (400) 
1

>  <s_m_source_file>  (400) 
/var/tmp/pbs.5083858.sched01/tmpfwoas7s2/160e3gkngik.sdf

>  <i_m_source_file_index>  (400) 
5

>  <i_lp_mmshare_version>  (400) 
48012

>  <i_f3d_flags>  (400) 
0

>  <s_epik_input>  (400) 
W0NIMl0xT1tDSDJdW0NAQEhdKE9bQ0gzXSlbQ0BASF0oW0NASF0xMilbQ0gyXU4oW0NIMl0yKVtDQEBIXTNbQ0gyXVtDSDJdTihbQ0gyXVtDQEhdM1tPSF0pYzRuW2NIXVtjSF1ubjQ=

>  <s_epik_cmdline>  (400) 
J2VwaWtfcHl0aG9uJywgJy1waHQnLCAnMi4wJywgJy1waCcsICc3LjAnLCAnLXRuJywgJzgnLCAnLW1hJywgJzIwMCcsICctaW1hZScsICc8aW5maWxlLm1hZT4nLCAnLW9tYWUnLCAnPG91dGZpbGUubWFlPic=

>  <r_lp_tautomer_probability>  (400) 
1

>  <r_epik_Ionization_Penalty>  (400) 
0.0038757

>  <r_epik_Ionization_Penalty_Charging>  (400) 
0.00252061

>  <r_epik_Ionization_Penalty_Neutral>  (400) 
0.00135508

>  <r_epik_State_Penalty>  (400) 
-0

>  <r_epik_Charging_Adjusted_Penalty>  (400) 
0.00252061

>  <i_epik_Tot_Q>  (400) 
1

>  <i_epik_Tot_abs_Q>  (400) 
1

>  <s_lp_Force_Field>  (400) 
OPLS3e

>  <r_lp_Energy>  (400) 
50.7331

>  <b_lp_Chiralities_Consistent>  (400) 
1

>  <s_lp_Variant>  (400) 
112:0-1

>  <s_i_glide_gridfile>  (400) 
pfpi4k_grid

>  <i_i_glide_lignum>  (400) 
5

>  <i_i_glide_rotatable_bonds>  (400) 
4

>  <r_i_docking_score>  (400) 
-3.56003

>  <r_i_glide_ligand_efficiency>  (400) 
-0.148335

>  <r_i_glide_ligand_efficiency_sa>  (400) 
-0.427871

>  <r_i_glide_ligand_efficiency_ln>  (400) 
-0.852079

>  <r_i_glide_gscore>  (400) 
-3.56003

>  <r_i_glide_lipo>  (400) 
-0.602838

>  <r_i_glide_hbond>  (400) 
-0.16

>  <r_i_glide_metal>  (400) 
-0

>  <r_i_glide_rewards>  (400) 
-1.11539

>  <r_i_glide_evdw>  (400) 
-21.3974

>  <r_i_glide_ecoul>  (400) 
-5.00284

>  <r_i_glide_erotb>  (400) 
0.33376

>  <r_i_glide_esite>  (400) 
-0.195267

>  <r_i_glide_emodel>  (400) 
-34.3307

>  <r_i_glide_energy>  (400) 
-26.4002

>  <r_i_glide_einternal>  (400) 
0.453957

>  <r_i_glide_intrahb_reward>  (400) 
-0

>  <i_i_glide_confnum>  (400) 
4

>  <i_i_glide_posenum>  (400) 
5

>  <r_i_glide_eff_state_penalty>  (400) 
0

>  <ligand_id>  (400) 
112

>  <original_smiles>  (400) 
COC1COCC2CN(C3CCN(c4nccnn4)CC3O)CC21

>  <smiles>  (400) 
[H]OC1([H])C([H])([H])N(c2nnc([H])c([H])n2)C([H])([H])C([H])([H])C1([H])[N+]1([H])C([H])([H])C2([H])C([H])([H])OC([H])([H])C([H])(OC([H])([H])[H])C2([H])C1([H])[H]

$$$$
113:0:0
     RDKit          3D

 43 47  0  0  1  0  0  0  0  0999 V2000
    3.4955  -12.3561    4.5084 C   0  0  0  0  0  0  0  0  0  0  0  0
    3.0609  -11.0619    4.1222 O   0  0  0  0  0  0  0  0  0  0  0  0
    1.8464  -10.9094    3.5595 C   0  0  0  0  0  0  0  0  0  0  0  0
    1.0656  -11.8371    3.3440 O   0  0  0  0  0  0  0  0  0  0  0  0
    1.5486   -9.4988    3.2126 C   0  0  0  0  0  0  0  0  0  0  0  0
    0.3368   -9.2034    2.6491 C   0  0  0  0  0  0  0  0  0  0  0  0
   -0.0854   -7.7999    2.1724 C   0  0  2  0  0  0  0  0  0  0  0  0
    1.2108   -7.0572    1.8929 C   0  0  1  0  0  0  0  0  0  0  0  0
    1.3793   -5.7274    1.3509 O   0  0  0  0  0  0  0  0  0  0  0  0
    2.7202   -5.5225    1.6005 C   0  0  0  0  0  0  0  0  0  0  0  0
    3.7150   -5.1275    0.6822 C   0  0  0  0  0  0  0  0  0  0  0  0
    3.3342   -4.2516   -0.3133 O   0  0  0  0  0  0  0  0  0  0  0  0
    4.3015   -3.8537   -1.2722 C   0  0  0  0  0  0  0  0  0  0  0  0
    4.9972   -5.7512    0.7809 C   0  0  0  0  0  0  0  0  0  0  0  0
    5.2183   -6.8470    1.6653 C   0  0  0  0  0  0  0  0  0  0  0  0
    4.2019   -7.2268    2.5695 C   0  0  0  0  0  0  0  0  0  0  0  0
    3.1338   -6.3722    2.6008 C   0  0  0  0  0  0  0  0  0  0  0  0
    1.9987   -7.0326    3.1919 C   0  0  1  0  0  0  0  0  0  0  0  0
    1.1932   -6.2629    4.2651 C   0  0  0  0  0  0  0  0  0  0  0  0
   -0.2230   -6.8644    4.4329 C   0  0  0  0  0  0  0  0  0  0  0  0
   -0.8916   -7.0406    3.1370 N   0  0  0  0  0  0  0  0  0  0  0  0
   -2.1828   -7.6783    3.3523 C   0  0  0  0  0  0  0  0  0  0  0  0
    2.5470   -8.3972    3.6438 C   0  0  2  0  0  0  0  0  0  0  0  0
    3.9183   -8.4521    3.1361 O   0  0  0  0  0  0  0  0  0  0  0  0
    4.5004  -12.2994    4.9234 H   0  0  0  0  0  0  0  0  0  0  0  0
    3.5231  -13.0301    3.6518 H   0  0  0  0  0  0  0  0  0  0  0  0
    2.8385  -12.7789    5.2686 H   0  0  0  0  0  0  0  0  0  0  0  0
   -0.3699   -9.9850    2.4179 H   0  0  0  0  0  0  0  0  0  0  0  0
   -0.6373   -7.9051    1.2359 H   0  0  0  0  0  0  0  0  0  0  0  0
    1.7166   -7.6933    1.1576 H   0  0  0  0  0  0  0  0  0  0  0  0
    3.8303   -3.1788   -1.9860 H   0  0  0  0  0  0  0  0  0  0  0  0
    4.6974   -4.6968   -1.8377 H   0  0  0  0  0  0  0  0  0  0  0  0
    5.1245   -3.3229   -0.7957 H   0  0  0  0  0  0  0  0  0  0  0  0
    5.7702   -5.5226    0.0692 H   0  0  0  0  0  0  0  0  0  0  0  0
    6.1046   -7.4529    1.5681 H   0  0  0  0  0  0  0  0  0  0  0  0
    1.7201   -6.2482    5.2221 H   0  0  0  0  0  0  0  0  0  0  0  0
    1.0808   -5.2231    3.9615 H   0  0  0  0  0  0  0  0  0  0  0  0
   -0.1691   -7.8157    4.9615 H   0  0  0  0  0  0  0  0  0  0  0  0
   -0.8256   -6.1954    5.0493 H   0  0  0  0  0  0  0  0  0  0  0  0
   -2.7923   -7.0590    4.0105 H   0  0  0  0  0  0  0  0  0  0  0  0
   -2.0959   -8.6732    3.7964 H   0  0  0  0  0  0  0  0  0  0  0  0
   -2.7029   -7.7806    2.4007 H   0  0  0  0  0  0  0  0  0  0  0  0
    2.6345   -8.4211    4.7322 H   0  0  0  0  0  0  0  0  0  0  0  0
  1  2  1  0
  1 25  1  0
  1 26  1  0
  1 27  1  0
  2  3  1  0
  3  4  2  0
  3  5  1  0
  5 23  1  0
  5  6  2  0
  6  7  1  0
  6 28  1  0
  7 21  1  0
  7  8  1  0
  7 29  1  6
  8 18  1  0
  8  9  1  0
  8 30  1  6
  9 10  1  0
 10 17  2  0
 10 11  1  0
 11 12  1  0
 11 14  2  0
 12 13  1  0
 13 31  1  0
 13 32  1  0
 13 33  1  0
 14 15  1  0
 14 34  1  0
 15 16  2  0
 15 35  1  0
 16 24  1  0
 16 17  1  0
 17 18  1  0
 18 19  1  1
 18 23  1  0
 19 20  1  0
 19 36  1  0
 19 37  1  0
 20 21  1  0
 20 38  1  0
 20 39  1  0
 21 22  1  0
 22 40  1  0
 22 41  1  0
 22 42  1  0
 23 24  1  0
 23 43  1  1
M  END
>  <i_m_ct_stereo_status>  (401) 
1

>  <s_m_source_file>  (401) 
/var/tmp/pbs.5083858.sched01/tmpnof3q3uz/165w5736ln3.sdf

>  <i_m_source_file_index>  (401) 
1

>  <i_lp_mmshare_version>  (401) 
48012

>  <i_f3d_flags>  (401) 
0

>  <s_epik_input>  (401) 
W0NIMl0xW0NIMl1OKFtDSDNdKVtDQEBIXShbQ0BASF0yW0NAXTEzNClbQ0hdPUMoQyg9TylPW0NIM10pW0NASF00T2M1YzNjKE8yKWMoT1tDSDNdKVtjSF1bY0hdNQ==

>  <s_epik_cmdline>  (401) 
J2VwaWtfcHl0aG9uJywgJy1waHQnLCAnMi4wJywgJy1waCcsICc3LjAnLCAnLXRuJywgJzgnLCAnLW1hJywgJzIwMCcsICctaW1hZScsICc8aW5maWxlLm1hZT4nLCAnLW9tYWUnLCAnPG91dGZpbGUubWFlPic=

>  <r_lp_tautomer_probability>  (401) 
1

>  <r_epik_Ionization_Penalty>  (401) 
0.000648771

>  <r_epik_Ionization_Penalty_Charging>  (401) 
0

>  <r_epik_Ionization_Penalty_Neutral>  (401) 
0.000648771

>  <r_epik_State_Penalty>  (401) 
0.000410769

>  <r_epik_Charging_Adjusted_Penalty>  (401) 
0.000410769

>  <i_epik_Tot_Q>  (401) 
0

>  <i_epik_Tot_abs_Q>  (401) 
0

>  <s_epik_Chemistry_Notes>  (401) 
This compound has an ester and may undergo hydrolysis at high or low pH.

>  <s_lp_Force_Field>  (401) 
OPLS3e

>  <r_lp_Energy>  (401) 
95.5766

>  <b_lp_Chiralities_Consistent>  (401) 
1

>  <s_lp_Variant>  (401) 
113:0-1

>  <s_i_glide_gridfile>  (401) 
pfpi4k_grid

>  <i_i_glide_lignum>  (401) 
1

>  <i_i_glide_rotatable_bonds>  (401) 
3

>  <r_i_docking_score>  (401) 
-3.22712

>  <r_i_glide_ligand_efficiency>  (401) 
-0.134463

>  <r_i_glide_ligand_efficiency_sa>  (401) 
-0.38786

>  <r_i_glide_ligand_efficiency_ln>  (401) 
-0.772399

>  <r_i_glide_gscore>  (401) 
-3.22712

>  <r_i_glide_lipo>  (401) 
-0.160837

>  <r_i_glide_hbond>  (401) 
-0.276349

>  <r_i_glide_metal>  (401) 
-0

>  <r_i_glide_rewards>  (401) 
-1.28708

>  <r_i_glide_evdw>  (401) 
-23.9892

>  <r_i_glide_ecoul>  (401) 
-3.17771

>  <r_i_glide_erotb>  (401) 
0.173262

>  <r_i_glide_esite>  (401) 
0

>  <r_i_glide_emodel>  (401) 
-32.758

>  <r_i_glide_energy>  (401) 
-27.1669

>  <r_i_glide_einternal>  (401) 
0.66604

>  <r_i_glide_intrahb_reward>  (401) 
-0

>  <i_i_glide_confnum>  (401) 
2

>  <i_i_glide_posenum>  (401) 
35

>  <r_i_glide_eff_state_penalty>  (401) 
0

>  <ligand_id>  (401) 
113

>  <original_smiles>  (401) 
COC(=O)C1=CC2C3Oc4c(OC)ccc5c4C3(CCN2C)C1O5

>  <smiles>  (401) 
[H]C1=C(C(=O)OC([H])([H])[H])C2([H])Oc3c([H])c([H])c(OC([H])([H])[H])c4c3C23C([H])([H])C([H])([H])N(C([H])([H])[H])C1([H])C3([H])O4

$$$$
113:0:1
     RDKit          3D

 43 47  0  0  1  0  0  0  0  0999 V2000
    4.5342  -12.6530    3.4093 C   0  0  0  0  0  0  0  0  0  0  0  0
    3.8276  -11.4345    3.2799 O   0  0  0  0  0  0  0  0  0  0  0  0
    4.4674  -10.2751    3.0193 C   0  0  0  0  0  0  0  0  0  0  0  0
    5.6944  -10.1616    2.9476 O   0  0  0  0  0  0  0  0  0  0  0  0
    3.5209   -9.1462    2.8184 C   0  0  0  0  0  0  0  0  0  0  0  0
    2.1864   -9.3854    2.6093 C   0  0  0  0  0  0  0  0  0  0  0  0
    1.1320   -8.2950    2.3525 C   0  0  2  0  0  0  0  0  0  0  0  0
    1.9026   -7.1136    1.7929 C   0  0  1  0  0  0  0  0  0  0  0  0
    1.3711   -5.8584    1.3020 O   0  0  0  0  0  0  0  0  0  0  0  0
    2.5377   -5.1272    1.2047 C   0  0  0  0  0  0  0  0  0  0  0  0
    3.0172   -4.4174    0.0848 C   0  0  0  0  0  0  0  0  0  0  0  0
    2.0770   -3.8570   -0.7507 O   0  0  0  0  0  0  0  0  0  0  0  0
    2.5158   -3.1556   -1.9048 C   0  0  0  0  0  0  0  0  0  0  0  0
    4.4244   -4.4494   -0.1748 C   0  0  0  0  0  0  0  0  0  0  0  0
    5.2878   -5.3092    0.5617 C   0  0  0  0  0  0  0  0  0  0  0  0
    4.7770   -6.0276    1.6673 C   0  0  0  0  0  0  0  0  0  0  0  0
    3.5006   -5.6791    2.0169 C   0  0  0  0  0  0  0  0  0  0  0  0
    2.9217   -6.7112    2.8421 C   0  0  1  0  0  0  0  0  0  0  0  0
    2.1803   -6.2753    4.1274 C   0  0  0  0  0  0  0  0  0  0  0  0
    1.2182   -7.3865    4.6191 C   0  0  0  0  0  0  0  0  0  0  0  0
    0.3627   -7.8788    3.5329 N   0  0  0  0  0  0  0  0  0  0  0  0
   -0.4620   -8.9819    4.0220 C   0  0  0  0  0  0  0  0  0  0  0  0
    4.0700   -7.7162    3.0496 C   0  0  2  0  0  0  0  0  0  0  0  0
    5.1670   -7.2345    2.2094 O   0  0  0  0  0  0  0  0  0  0  0  0
    3.8275  -13.4490    3.6409 H   0  0  0  0  0  0  0  0  0  0  0  0
    5.2673  -12.6097    4.2149 H   0  0  0  0  0  0  0  0  0  0  0  0
    5.0364  -12.9150    2.4787 H   0  0  0  0  0  0  0  0  0  0  0  0
    1.8006  -10.3874    2.5140 H   0  0  0  0  0  0  0  0  0  0  0  0
    0.4455   -8.6538    1.5886 H   0  0  0  0  0  0  0  0  0  0  0  0
    2.4141   -7.5259    0.9146 H   0  0  0  0  0  0  0  0  0  0  0  0
    1.6451   -2.7658   -2.4320 H   0  0  0  0  0  0  0  0  0  0  0  0
    3.0502   -3.8088   -2.5950 H   0  0  0  0  0  0  0  0  0  0  0  0
    3.1477   -2.3079   -1.6383 H   0  0  0  0  0  0  0  0  0  0  0  0
    4.8244   -3.9708   -1.0507 H   0  0  0  0  0  0  0  0  0  0  0  0
    6.2840   -5.5100    0.2032 H   0  0  0  0  0  0  0  0  0  0  0  0
    2.8802   -5.9935    4.9169 H   0  0  0  0  0  0  0  0  0  0  0  0
    1.5812   -5.3892    3.9202 H   0  0  0  0  0  0  0  0  0  0  0  0
    1.7861   -8.2058    5.0581 H   0  0  0  0  0  0  0  0  0  0  0  0
    0.5782   -6.9877    5.4079 H   0  0  0  0  0  0  0  0  0  0  0  0
   -1.0959   -8.6553    4.8483 H   0  0  0  0  0  0  0  0  0  0  0  0
    0.1340   -9.8263    4.3755 H   0  0  0  0  0  0  0  0  0  0  0  0
   -1.1229   -9.3531    3.2349 H   0  0  0  0  0  0  0  0  0  0  0  0
    4.4404   -7.6505    4.0748 H   0  0  0  0  0  0  0  0  0  0  0  0
  1  2  1  0
  1 25  1  0
  1 26  1  0
  1 27  1  0
  2  3  1  0
  3  4  2  0
  3  5  1  0
  5 23  1  0
  5  6  2  0
  6  7  1  0
  6 28  1  0
  7 21  1  0
  7  8  1  0
  7 29  1  6
  8 18  1  0
  8  9  1  0
  8 30  1  6
  9 10  1  0
 10 17  2  0
 10 11  1  0
 11 12  1  0
 11 14  2  0
 12 13  1  0
 13 31  1  0
 13 32  1  0
 13 33  1  0
 14 15  1  0
 14 34  1  0
 15 16  2  0
 15 35  1  0
 16 24  1  0
 16 17  1  0
 17 18  1  0
 18 19  1  1
 18 23  1  0
 19 20  1  0
 19 36  1  0
 19 37  1  0
 20 21  1  0
 20 38  1  0
 20 39  1  0
 21 22  1  0
 22 40  1  0
 22 41  1  0
 22 42  1  0
 23 24  1  0
 23 43  1  1
M  END
>  <i_m_ct_stereo_status>  (402) 
1

>  <s_m_source_file>  (402) 
/var/tmp/pbs.5083858.sched01/tmpnof3q3uz/165w5736ln3.sdf

>  <i_m_source_file_index>  (402) 
1

>  <i_lp_mmshare_version>  (402) 
48012

>  <i_f3d_flags>  (402) 
0

>  <s_epik_input>  (402) 
W0NIMl0xW0NIMl1OKFtDSDNdKVtDQEBIXShbQ0BASF0yW0NAXTEzNClbQ0hdPUMoQyg9TylPW0NIM10pW0NASF00T2M1YzNjKE8yKWMoT1tDSDNdKVtjSF1bY0hdNQ==

>  <s_epik_cmdline>  (402) 
J2VwaWtfcHl0aG9uJywgJy1waHQnLCAnMi4wJywgJy1waCcsICc3LjAnLCAnLXRuJywgJzgnLCAnLW1hJywgJzIwMCcsICctaW1hZScsICc8aW5maWxlLm1hZT4nLCAnLW9tYWUnLCAnPG91dGZpbGUubWFlPic=

>  <r_lp_tautomer_probability>  (402) 
1

>  <r_epik_Ionization_Penalty>  (402) 
0.000648771

>  <r_epik_Ionization_Penalty_Charging>  (402) 
0

>  <r_epik_Ionization_Penalty_Neutral>  (402) 
0.000648771

>  <r_epik_State_Penalty>  (402) 
0.000410769

>  <r_epik_Charging_Adjusted_Penalty>  (402) 
0.000410769

>  <i_epik_Tot_Q>  (402) 
0

>  <i_epik_Tot_abs_Q>  (402) 
0

>  <s_epik_Chemistry_Notes>  (402) 
This compound has an ester and may undergo hydrolysis at high or low pH.

>  <s_lp_Force_Field>  (402) 
OPLS3e

>  <r_lp_Energy>  (402) 
95.5766

>  <b_lp_Chiralities_Consistent>  (402) 
1

>  <s_lp_Variant>  (402) 
113:0-1

>  <s_i_glide_gridfile>  (402) 
pfpi4k_grid

>  <i_i_glide_lignum>  (402) 
1

>  <i_i_glide_rotatable_bonds>  (402) 
3

>  <r_i_docking_score>  (402) 
-3.04236

>  <r_i_glide_ligand_efficiency>  (402) 
-0.126765

>  <r_i_glide_ligand_efficiency_sa>  (402) 
-0.365653

>  <r_i_glide_ligand_efficiency_ln>  (402) 
-0.728176

>  <r_i_glide_gscore>  (402) 
-3.04236

>  <r_i_glide_lipo>  (402) 
-0.251721

>  <r_i_glide_hbond>  (402) 
-0.145781

>  <r_i_glide_metal>  (402) 
-0

>  <r_i_glide_rewards>  (402) 
-1.16354

>  <r_i_glide_evdw>  (402) 
-21.2853

>  <r_i_glide_ecoul>  (402) 
-3.65716

>  <r_i_glide_erotb>  (402) 
0.173262

>  <r_i_glide_esite>  (402) 
-0.0417382

>  <r_i_glide_emodel>  (402) 
-30.1761

>  <r_i_glide_energy>  (402) 
-24.9424

>  <r_i_glide_einternal>  (402) 
0.390936

>  <r_i_glide_intrahb_reward>  (402) 
-0

>  <i_i_glide_confnum>  (402) 
2

>  <i_i_glide_posenum>  (402) 
4

>  <r_i_glide_eff_state_penalty>  (402) 
0

>  <ligand_id>  (402) 
113

>  <original_smiles>  (402) 
COC(=O)C1=CC2C3Oc4c(OC)ccc5c4C3(CCN2C)C1O5

>  <smiles>  (402) 
[H]C1=C(C(=O)OC([H])([H])[H])C2([H])Oc3c([H])c([H])c(OC([H])([H])[H])c4c3C23C([H])([H])C([H])([H])N(C([H])([H])[H])C1([H])C3([H])O4

$$$$
113:0:2
     RDKit          3D

 43 47  0  0  1  0  0  0  0  0999 V2000
    1.8065    7.4716    7.6738 C   0  0  0  0  0  0  0  0  0  0  0  0
    1.1856    6.1983    7.6622 O   0  0  0  0  0  0  0  0  0  0  0  0
    0.2245    5.8906    6.7629 C   0  0  0  0  0  0  0  0  0  0  0  0
   -0.1798    6.6651    5.8938 O   0  0  0  0  0  0  0  0  0  0  0  0
   -0.3007    4.5144    6.9521 C   0  0  0  0  0  0  0  0  0  0  0  0
   -0.1148    3.8596    8.1416 C   0  0  0  0  0  0  0  0  0  0  0  0
   -0.5405    2.4054    8.4164 C   0  0  2  0  0  0  0  0  0  0  0  0
   -0.5921    1.7253    7.0578 C   0  0  1  0  0  0  0  0  0  0  0  0
   -0.8927    0.3359    6.7685 O   0  0  0  0  0  0  0  0  0  0  0  0
   -1.0486    0.4091    5.3947 C   0  0  0  0  0  0  0  0  0  0  0  0
   -0.3728   -0.3472    4.4151 C   0  0  0  0  0  0  0  0  0  0  0  0
   -0.0446   -1.6453    4.7403 O   0  0  0  0  0  0  0  0  0  0  0  0
    0.8193   -2.3650    3.8707 C   0  0  0  0  0  0  0  0  0  0  0  0
    0.0098    0.3176    3.2050 C   0  0  0  0  0  0  0  0  0  0  0  0
   -0.1199    1.7283    3.0636 C   0  0  0  0  0  0  0  0  0  0  0  0
   -0.7612    2.4697    4.0777 C   0  0  0  0  0  0  0  0  0  0  0  0
   -1.3604    1.7013    5.0409 C   0  0  0  0  0  0  0  0  0  0  0  0
   -1.5963    2.4950    6.2186 C   0  0  1  0  0  0  0  0  0  0  0  0
   -2.9861    2.3994    6.8853 C   0  0  0  0  0  0  0  0  0  0  0  0
   -2.9396    2.8936    8.3517 C   0  0  0  0  0  0  0  0  0  0  0  0
   -1.8375    2.2635    9.0873 N   0  0  0  0  0  0  0  0  0  0  0  0
   -1.7864    2.8080   10.4410 C   0  0  0  0  0  0  0  0  0  0  0  0
   -1.1608    3.9124    5.8121 C   0  0  2  0  0  0  0  0  0  0  0  0
   -0.5777    3.7804    4.4805 O   0  0  0  0  0  0  0  0  0  0  0  0
    2.5359    7.5026    8.4823 H   0  0  0  0  0  0  0  0  0  0  0  0
    1.0808    8.2653    7.8478 H   0  0  0  0  0  0  0  0  0  0  0  0
    2.3324    7.6611    6.7392 H   0  0  0  0  0  0  0  0  0  0  0  0
    0.4242    4.3105    8.9602 H   0  0  0  0  0  0  0  0  0  0  0  0
    0.2395    1.9366    9.0164 H   0  0  0  0  0  0  0  0  0  0  0  0
    0.4185    1.8694    6.6564 H   0  0  0  0  0  0  0  0  0  0  0  0
    0.9740   -3.3682    4.2707 H   0  0  0  0  0  0  0  0  0  0  0  0
    1.7970   -1.8864    3.7834 H   0  0  0  0  0  0  0  0  0  0  0  0
    0.3841   -2.4771    2.8820 H   0  0  0  0  0  0  0  0  0  0  0  0
    0.5469   -0.2070    2.4367 H   0  0  0  0  0  0  0  0  0  0  0  0
    0.3659    2.2394    2.2464 H   0  0  0  0  0  0  0  0  0  0  0  0
   -3.7439    2.9421    6.3136 H   0  0  0  0  0  0  0  0  0  0  0  0
   -3.3067    1.3600    6.8920 H   0  0  0  0  0  0  0  0  0  0  0  0
   -2.8542    3.9797    8.3839 H   0  0  0  0  0  0  0  0  0  0  0  0
   -3.8751    2.6389    8.8505 H   0  0  0  0  0  0  0  0  0  0  0  0
   -2.7281    2.6235   10.9605 H   0  0  0  0  0  0  0  0  0  0  0  0
   -1.6061    3.8860   10.4494 H   0  0  0  0  0  0  0  0  0  0  0  0
   -0.9945    2.3318   11.0247 H   0  0  0  0  0  0  0  0  0  0  0  0
   -2.0399    4.5361    5.6553 H   0  0  0  0  0  0  0  0  0  0  0  0
  1  2  1  0
  1 25  1  0
  1 26  1  0
  1 27  1  0
  2  3  1  0
  3  4  2  0
  3  5  1  0
  5 23  1  0
  5  6  2  0
  6  7  1  0
  6 28  1  0
  7 21  1  0
  7  8  1  0
  7 29  1  1
  8 18  1  0
  8  9  1  0
  8 30  1  6
  9 10  1  0
 10 17  2  0
 10 11  1  0
 11 12  1  0
 11 14  2  0
 12 13  1  0
 13 31  1  0
 13 32  1  0
 13 33  1  0
 14 15  1  0
 14 34  1  0
 15 16  2  0
 15 35  1  0
 16 24  1  0
 16 17  1  0
 17 18  1  0
 18 19  1  1
 18 23  1  0
 19 20  1  0
 19 36  1  0
 19 37  1  0
 20 21  1  0
 20 38  1  0
 20 39  1  0
 21 22  1  0
 22 40  1  0
 22 41  1  0
 22 42  1  0
 23 24  1  0
 23 43  1  6
M  END
>  <i_m_ct_stereo_status>  (403) 
1

>  <s_m_source_file>  (403) 
/var/tmp/pbs.5083858.sched01/tmpnof3q3uz/165w5736ln3.sdf

>  <i_m_source_file_index>  (403) 
1

>  <i_lp_mmshare_version>  (403) 
48012

>  <i_f3d_flags>  (403) 
0

>  <s_epik_input>  (403) 
W0NIMl0xW0NIMl1OKFtDSDNdKVtDQEBIXShbQ0BASF0yW0NAXTEzNClbQ0hdPUMoQyg9TylPW0NIM10pW0NASF00T2M1YzNjKE8yKWMoT1tDSDNdKVtjSF1bY0hdNQ==

>  <s_epik_cmdline>  (403) 
J2VwaWtfcHl0aG9uJywgJy1waHQnLCAnMi4wJywgJy1waCcsICc3LjAnLCAnLXRuJywgJzgnLCAnLW1hJywgJzIwMCcsICctaW1hZScsICc8aW5maWxlLm1hZT4nLCAnLW9tYWUnLCAnPG91dGZpbGUubWFlPic=

>  <r_lp_tautomer_probability>  (403) 
1

>  <r_epik_Ionization_Penalty>  (403) 
0.000648771

>  <r_epik_Ionization_Penalty_Charging>  (403) 
0

>  <r_epik_Ionization_Penalty_Neutral>  (403) 
0.000648771

>  <r_epik_State_Penalty>  (403) 
0.000410769

>  <r_epik_Charging_Adjusted_Penalty>  (403) 
0.000410769

>  <i_epik_Tot_Q>  (403) 
0

>  <i_epik_Tot_abs_Q>  (403) 
0

>  <s_epik_Chemistry_Notes>  (403) 
This compound has an ester and may undergo hydrolysis at high or low pH.

>  <s_lp_Force_Field>  (403) 
OPLS3e

>  <r_lp_Energy>  (403) 
95.5766

>  <b_lp_Chiralities_Consistent>  (403) 
1

>  <s_lp_Variant>  (403) 
113:0-1

>  <s_i_glide_gridfile>  (403) 
pfpi4k_grid

>  <i_i_glide_lignum>  (403) 
1

>  <i_i_glide_rotatable_bonds>  (403) 
3

>  <r_i_docking_score>  (403) 
-2.92419

>  <r_i_glide_ligand_efficiency>  (403) 
-0.121841

>  <r_i_glide_ligand_efficiency_sa>  (403) 
-0.351451

>  <r_i_glide_ligand_efficiency_ln>  (403) 
-0.699893

>  <r_i_glide_gscore>  (403) 
-2.92419

>  <r_i_glide_lipo>  (403) 
-0.299766

>  <r_i_glide_hbond>  (403) 
-0.103225

>  <r_i_glide_metal>  (403) 
-0

>  <r_i_glide_rewards>  (403) 
-1.16354

>  <r_i_glide_evdw>  (403) 
-18.5869

>  <r_i_glide_ecoul>  (403) 
-3.96302

>  <r_i_glide_erotb>  (403) 
0.173262

>  <r_i_glide_esite>  (403) 
-0.0071179

>  <r_i_glide_emodel>  (403) 
-27.5432

>  <r_i_glide_energy>  (403) 
-22.55

>  <r_i_glide_einternal>  (403) 
0.31686

>  <r_i_glide_intrahb_reward>  (403) 
-0

>  <i_i_glide_confnum>  (403) 
1

>  <i_i_glide_posenum>  (403) 
19

>  <r_i_glide_eff_state_penalty>  (403) 
0

>  <ligand_id>  (403) 
113

>  <original_smiles>  (403) 
COC(=O)C1=CC2C3Oc4c(OC)ccc5c4C3(CCN2C)C1O5

>  <smiles>  (403) 
[H]C1=C(C(=O)OC([H])([H])[H])C2([H])Oc3c([H])c([H])c(OC([H])([H])[H])c4c3C23C([H])([H])C([H])([H])N(C([H])([H])[H])C1([H])C3([H])O4

$$$$
116:0:0
     RDKit          3D

 90 95  0  0  1  0  0  0  0  0999 V2000
    7.2234    0.6293    4.4948 C   0  0  0  0  0  0  0  0  0  0  0  0
    6.1024   -0.2366    4.4437 O   0  0  0  0  0  0  0  0  0  0  0  0
    5.9972   -0.9300    3.2023 C   0  0  2  0  0  0  0  0  0  0  0  0
    5.4041   -0.1741    2.1336 O   0  0  0  0  0  0  0  0  0  0  0  0
    4.2849   -1.0819    2.1149 C   0  0  2  0  0  0  0  0  0  0  0  0
    4.8833   -1.9465    3.2264 C   0  0  1  0  0  0  0  0  0  0  0  0
    5.0903   -3.4461    2.9482 C   0  0  1  0  0  0  0  0  0  0  0  0
    3.7650   -3.7646    3.2663 O   0  0  0  0  0  0  0  0  0  0  0  0
    5.4927   -3.9212    1.4941 C   0  0  1  0  0  0  0  0  0  0  0  0
    7.0357   -4.1185    1.5266 C   0  0  0  0  0  0  0  0  0  0  0  0
    4.8726   -5.3378    1.0009 C   0  0  2  0  0  0  0  0  0  0  0  0
    3.4829   -5.2869    0.3708 C   0  0  0  0  0  0  0  0  0  0  0  0
    2.2915   -5.5717    1.3068 C   0  0  0  0  0  0  0  0  0  0  0  0
    2.3177   -7.0377    1.7343 C   0  0  2  0  0  0  0  0  0  0  0  0
    1.0843   -7.5278    2.5811 C   0  0  2  0  0  0  0  0  0  0  0  0
   -0.2054   -7.1183    1.7953 C   0  0  0  0  0  0  0  0  0  0  0  0
    1.0370   -6.8753    3.9880 C   0  0  0  0  0  0  0  0  0  0  0  0
   -0.0808   -7.4303    4.8867 C   0  0  0  0  0  0  0  0  0  0  0  0
    0.0328   -8.9529    5.0464 C   0  0  0  0  0  0  0  0  0  0  0  0
    0.1124   -9.7160    3.7015 C   0  0  0  0  0  0  0  0  0  0  0  0
    0.4761  -11.2032    4.0253 C   0  0  0  0  0  0  0  0  0  0  0  0
   -1.2593   -9.6605    2.9904 C   0  0  0  0  0  0  0  0  0  0  0  0
    1.1986   -9.0882    2.7610 C   0  0  2  0  0  0  0  0  0  0  0  0
    2.6213   -9.4988    3.2253 C   0  0  0  0  0  0  0  0  0  0  0  0
    3.7436   -8.9563    2.3475 C   0  0  0  0  0  0  0  0  0  0  0  0
    3.7101   -7.4421    2.2775 C   0  0  2  0  0  0  0  0  0  0  0  0
    4.3828   -6.6476    3.3403 C   0  0  1  0  0  0  0  0  0  0  0  0
    5.1161   -7.3252    4.3408 O   0  0  0  0  0  0  0  0  0  0  0  0
    4.9911   -6.6017    1.9246 C   0  0  2  0  0  0  0  0  0  0  0  0
    6.2116   -7.4621    1.5544 C   0  0  0  0  0  0  0  0  0  0  0  0
    5.3060   -2.6969    0.4869 C   0  0  1  0  0  0  0  0  0  0  0  0
    5.4608   -3.0798   -0.8862 O   0  0  0  0  0  0  0  0  0  0  0  0
    6.6140   -2.8708   -1.5535 C   0  0  0  0  0  0  0  0  0  0  0  0
    6.5793   -3.4879   -2.9254 C   0  0  0  0  0  0  0  0  0  0  0  0
    7.6259   -2.2943   -1.1421 O   0  0  0  0  0  0  0  0  0  0  0  0
    4.1216   -1.6974    0.7256 C   0  0  0  0  0  0  0  0  0  0  0  0
    2.6922   -2.2710    0.6130 C   0  0  0  0  0  0  0  0  0  0  0  0
    4.1512   -0.5734   -0.2940 C   0  0  0  0  0  0  0  0  0  0  0  0
    7.2492    1.1593    5.4507 H   0  0  0  0  0  0  0  0  0  0  0  0
    7.1214    1.3462    3.6959 H   0  0  0  0  0  0  0  0  0  0  0  0
    8.2010    0.1655    4.3699 H   0  0  0  0  0  0  0  0  0  0  0  0
    6.9208   -1.3596    2.8430 H   0  0  0  0  0  0  0  0  0  0  0  0
    3.4050   -0.5363    2.4575 H   0  0  0  0  0  0  0  0  0  0  0  0
    4.3245   -1.7723    4.1534 H   0  0  0  0  0  0  0  0  0  0  0  0
    5.7298   -3.9147    3.6882 H   0  0  0  0  0  0  0  0  0  0  0  0
    3.6693   -3.7531    4.2048 H   0  0  0  0  0  0  0  0  0  0  0  0
    7.5141   -4.2952    0.5616 H   0  0  0  0  0  0  0  0  0  0  0  0
    7.3747   -4.8983    2.2055 H   0  0  0  0  0  0  0  0  0  0  0  0
    7.4737   -3.1901    1.8379 H   0  0  0  0  0  0  0  0  0  0  0  0
    5.4708   -5.5732    0.1122 H   0  0  0  0  0  0  0  0  0  0  0  0
    3.4091   -4.3818   -0.2122 H   0  0  0  0  0  0  0  0  0  0  0  0
    3.4030   -5.9897   -0.4419 H   0  0  0  0  0  0  0  0  0  0  0  0
    2.1603   -4.9814    2.2037 H   0  0  0  0  0  0  0  0  0  0  0  0
    1.4114   -5.3074    0.7361 H   0  0  0  0  0  0  0  0  0  0  0  0
    2.2144   -7.5592    0.7964 H   0  0  0  0  0  0  0  0  0  0  0  0
   -1.1383   -7.3643    2.2836 H   0  0  0  0  0  0  0  0  0  0  0  0
   -0.2464   -7.5625    0.8008 H   0  0  0  0  0  0  0  0  0  0  0  0
   -0.2998   -6.0460    1.6817 H   0  0  0  0  0  0  0  0  0  0  0  0
    1.9766   -7.0526    4.5045 H   0  0  0  0  0  0  0  0  0  0  0  0
    0.9335   -5.7940    3.9121 H   0  0  0  0  0  0  0  0  0  0  0  0
   -0.0119   -6.9705    5.8722 H   0  0  0  0  0  0  0  0  0  0  0  0
   -1.0611   -7.1505    4.5031 H   0  0  0  0  0  0  0  0  0  0  0  0
    0.9268   -9.1705    5.6263 H   0  0  0  0  0  0  0  0  0  0  0  0
   -0.7954   -9.3239    5.6535 H   0  0  0  0  0  0  0  0  0  0  0  0
    0.6387  -11.8115    3.1364 H   0  0  0  0  0  0  0  0  0  0  0  0
   -0.2302  -11.7568    4.6041 H   0  0  0  0  0  0  0  0  0  0  0  0
    1.3291  -11.2851    4.6945 H   0  0  0  0  0  0  0  0  0  0  0  0
   -1.2600   -9.6958    1.9135 H   0  0  0  0  0  0  0  0  0  0  0  0
   -1.9653   -8.9258    3.3819 H   0  0  0  0  0  0  0  0  0  0  0  0
   -1.7458  -10.5840    3.2364 H   0  0  0  0  0  0  0  0  0  0  0  0
    1.0680   -9.5417    1.7757 H   0  0  0  0  0  0  0  0  0  0  0  0
    2.7845   -9.1895    4.2589 H   0  0  0  0  0  0  0  0  0  0  0  0
    2.7417  -10.5825    3.2127 H   0  0  0  0  0  0  0  0  0  0  0  0
    4.6832   -9.3014    2.7788 H   0  0  0  0  0  0  0  0  0  0  0  0
    3.6917   -9.3910    1.3455 H   0  0  0  0  0  0  0  0  0  0  0  0
    3.7081   -5.9331    3.7941 H   0  0  0  0  0  0  0  0  0  0  0  0
    5.5482   -8.0709    3.9653 H   0  0  0  0  0  0  0  0  0  0  0  0
    6.5349   -8.0882    2.3945 H   0  0  0  0  0  0  0  0  0  0  0  0
    7.0793   -6.8788    1.2411 H   0  0  0  0  0  0  0  0  0  0  0  0
    5.9539   -8.1624    0.7523 H   0  0  0  0  0  0  0  0  0  0  0  0
    6.1541   -2.0290    0.6741 H   0  0  0  0  0  0  0  0  0  0  0  0
    5.7522   -4.1784   -3.0487 H   0  0  0  0  0  0  0  0  0  0  0  0
    7.4984   -4.0614   -3.0688 H   0  0  0  0  0  0  0  0  0  0  0  0
    6.5458   -2.7335   -3.6950 H   0  0  0  0  0  0  0  0  0  0  0  0
    2.4544   -2.5862   -0.3965 H   0  0  0  0  0  0  0  0  0  0  0  0
    1.8881   -1.5909    0.9296 H   0  0  0  0  0  0  0  0  0  0  0  0
    2.5785   -3.0753    1.2976 H   0  0  0  0  0  0  0  0  0  0  0  0
    3.8867   -0.9150   -1.3074 H   0  0  0  0  0  0  0  0  0  0  0  0
    5.1177   -0.0753   -0.3518 H   0  0  0  0  0  0  0  0  0  0  0  0
    3.4330    0.1483    0.0767 H   0  0  0  0  0  0  0  0  0  0  0  0
  1  2  1  0
  1 39  1  0
  1 40  1  0
  1 41  1  0
  2  3  1  0
  3  6  1  0
  3  4  1  0
  3 42  1  6
  4  5  1  0
  5 36  1  0
  5  6  1  0
  5 43  1  1
  6  7  1  0
  6 44  1  1
  7  8  1  0
  7  9  1  0
  7 45  1  1
  8 46  1  0
  9 10  1  1
  9 11  1  0
  9 31  1  0
 10 47  1  0
 10 48  1  0
 10 49  1  0
 11 29  1  0
 11 12  1  0
 11 50  1  6
 12 13  1  0
 12 51  1  0
 12 52  1  0
 13 14  1  0
 13 53  1  0
 13 54  1  0
 14 26  1  0
 14 15  1  0
 14 55  1  6
 15 23  1  0
 15 16  1  6
 15 17  1  0
 16 56  1  0
 16 57  1  0
 16 58  1  0
 17 18  1  0
 17 59  1  0
 17 60  1  0
 18 19  1  0
 18 61  1  0
 18 62  1  0
 19 20  1  0
 19 63  1  0
 19 64  1  0
 20 21  1  0
 20 22  1  0
 20 23  1  0
 21 65  1  0
 21 66  1  0
 21 67  1  0
 22 68  1  0
 22 69  1  0
 22 70  1  0
 23 24  1  0
 23 71  1  6
 24 25  1  0
 24 72  1  0
 24 73  1  0
 26 25  1  1
 25 74  1  0
 25 75  1  0
 26 29  1  0
 26 27  1  0
 27 28  1  0
 27 29  1  0
 27 76  1  1
 28 77  1  0
 29 30  1  1
 30 78  1  0
 30 79  1  0
 30 80  1  0
 31 32  1  0
 31 36  1  0
 31 81  1  1
 32 33  1  0
 33 34  1  0
 33 35  2  0
 34 82  1  0
 34 83  1  0
 34 84  1  0
 36 37  1  0
 36 38  1  0
 37 85  1  0
 37 86  1  0
 37 87  1  0
 38 88  1  0
 38 89  1  0
 38 90  1  0
M  END
>  <i_m_ct_stereo_status>  (404) 
1

>  <s_m_source_file>  (404) 
/var/tmp/pbs.5083858.sched01/tmpnof3q3uz/165w5736ln3.sdf

>  <i_m_source_file_index>  (404) 
4

>  <i_lp_mmshare_version>  (404) 
48012

>  <i_f3d_flags>  (404) 
0

>  <s_epik_input>  (404) 
W0NIM11PW0NASF0oTzEpW0NAQEhdKFtDQEBIXTEyKVtDQEBIXShbT0hdKVtDQF0oW0NIM10pKFtDQEhdKEMyKFtDSDNdKVtDSDNdKU9DKD1PKVtDSDNdKVtDQEBIXShbQ0BAXTMoW0NIM10pW0NAQEhdNFtPSF0pW0NIMl1bQ0gyXVtDQEBIXShbQ0BAXTM0NSlbQ0BAXTYoW0NIM10pW0NAQEhdKFtDSDJdW0NIMl01KUMoW0NIM10pKFtDSDNdKVtDSDJdW0NIMl1bQ0gyXTY=

>  <s_epik_cmdline>  (404) 
J2VwaWtfcHl0aG9uJywgJy1waHQnLCAnMi4wJywgJy1waCcsICc3LjAnLCAnLXRuJywgJzgnLCAnLW1hJywgJzIwMCcsICctaW1hZScsICc8aW5maWxlLm1hZT4nLCAnLW9tYWUnLCAnPG91dGZpbGUubWFlPic=

>  <r_lp_tautomer_probability>  (404) 
1

>  <r_epik_Ionization_Penalty>  (404) 
2.85073e-06

>  <r_epik_Ionization_Penalty_Charging>  (404) 
0

>  <r_epik_Ionization_Penalty_Neutral>  (404) 
2.85073e-06

>  <r_epik_State_Penalty>  (404) 
-0

>  <r_epik_Charging_Adjusted_Penalty>  (404) 
0

>  <i_epik_Tot_Q>  (404) 
0

>  <i_epik_Tot_abs_Q>  (404) 
0

>  <s_epik_Chemistry_Notes>  (404) 
This compound has an ester and may undergo hydrolysis at high or low pH. This compound contains an acetal/aminal-like group ( X-CH(R)-Y where X, Y are N, S, or O) that may be acid/base labile, releasing an aldehyde.

>  <s_lp_Force_Field>  (404) 
OPLS3e

>  <r_lp_Energy>  (404) 
102.26

>  <b_lp_Chiralities_Consistent>  (404) 
1

>  <s_lp_Variant>  (404) 
116:0-1

>  <s_i_glide_gridfile>  (404) 
pfpi4k_grid

>  <i_i_glide_lignum>  (404) 
4

>  <i_i_glide_rotatable_bonds>  (404) 
6

>  <r_i_docking_score>  (404) 
-1.4945

>  <r_i_glide_ligand_efficiency>  (404) 
-0.0393289

>  <r_i_glide_ligand_efficiency_sa>  (404) 
-0.132223

>  <r_i_glide_ligand_efficiency_ln>  (404) 
-0.322258

>  <r_i_glide_gscore>  (404) 
-1.4945

>  <r_i_glide_lipo>  (404) 
-0.731489

>  <r_i_glide_hbond>  (404) 
-0.399746

>  <r_i_glide_metal>  (404) 
-0

>  <r_i_glide_rewards>  (404) 
-0.106878

>  <r_i_glide_evdw>  (404) 
-0.641367

>  <r_i_glide_ecoul>  (404) 
-2.40834

>  <r_i_glide_erotb>  (404) 
0.145358

>  <r_i_glide_esite>  (404) 
-0.0084249

>  <r_i_glide_emodel>  (404) 
-0.605071

>  <r_i_glide_energy>  (404) 
-3.0497

>  <r_i_glide_einternal>  (404) 
6.27156

>  <r_i_glide_intrahb_reward>  (404) 
-0

>  <i_i_glide_confnum>  (404) 
2

>  <i_i_glide_posenum>  (404) 
20

>  <r_i_glide_eff_state_penalty>  (404) 
0

>  <ligand_id>  (404) 
116

>  <original_smiles>  (404) 
COC1OC2C1C(O)C(C)(C1CCC3C4(C)CCCC(C)(C)C4CCC34C(O)C14C)C(OC(C)=O)C2(C)C

>  <smiles>  (404) 
[H]OC1([H])C2([H])C([H])(OC([H])([H])[H])OC2([H])C(C([H])([H])[H])(C([H])([H])[H])C([H])(OC(=O)C([H])([H])[H])C1(C([H])([H])[H])C1([H])C([H])([H])C([H])([H])C2([H])C3(C([H])([H])[H])C([H])([H])C([H])([H])C([H])([H])C(C([H])([H])[H])(C([H])([H])[H])C3([H])C([H])([H])C([H])([H])C23C([H])(O[H])C13C([H])([H])[H]

$$$$
